<configuration>
    <input>
        <net-file value="net_xml\frag_krakow_2.net.xml"/>
        <route-files value="routes\routes2.xml"/>
    </input>
    <time>
        <end value="3600"/>
    </time>
    <output>
        <tripinfo-output value="output\tripinfo2.xml"/>
    </output>
</configuration>