<additional>
  <edgeData id="edge_stats"
            file="../output/krakow_sim/edge_data.xml"
            begin="0"
            end="84600"
            excludeEmpty="true"/>
</additional>