<?xml version="1.0" encoding="UTF-8"?>

<!-- generated on 2026-05-07 08:13:06.819313 by Eclipse SUMO randomTrips.py v1_26_0+0000-fa7df22d7f1
<configuration>
    <net-file value="net_xml/big_fragment_krakow_without_edge.net.xml"/>
    <edge-type-file value="config/types_weights.txt"/>
    <output-trip-file value="output/trips_fixed.trips.xml"/>
    <fringe-factor value="3"/>
    <allow-fringe value="True"/>
    <end value="7200.0"/>
    <period value="1.0"/>
</configuration>
-->

<routes xmlns:xsi="http://www.w3.org/2001/XMLSchema-instance" xsi:noNamespaceSchemaLocation="http://sumo.dlr.de/xsd/routes_file.xsd">
    <trip id="0" depart="0.00" from="-919389926#1" to="-715092610"/>
    <trip id="1" depart="1.00" from="577519877" to="-240278097#2"/>
    <trip id="2" depart="2.00" from="180638763" to="-1336421108#3"/>
    <trip id="3" depart="3.00" from="-552230300#1" to="217197485#1"/>
    <trip id="4" depart="4.00" from="25365408" to="221329659"/>
    <trip id="5" depart="5.00" from="-552851764#1" to="242917513#0"/>
    <trip id="6" depart="6.00" from="37832001#0" to="-1070812772"/>
    <trip id="7" depart="7.00" from="37829703" to="26486575#0"/>
    <trip id="8" depart="8.00" from="1218205830" to="-30326777#2"/>
    <trip id="9" depart="9.00" from="825434646#0" to="1326240279#0"/>
    <trip id="10" depart="10.00" from="-239495552#5" to="-24805416#4"/>
    <trip id="11" depart="11.00" from="46096834" to="24787452"/>
    <trip id="12" depart="12.00" from="37829708" to="288995406"/>
    <trip id="13" depart="13.00" from="217300261" to="840207983#1"/>
    <trip id="14" depart="14.00" from="1422472497" to="227333677#4"/>
    <trip id="15" depart="15.00" from="431445484" to="25031677#1"/>
    <trip id="16" depart="16.00" from="497905725" to="240869997"/>
    <trip id="17" depart="17.00" from="-610734257" to="1103979900#2"/>
    <trip id="18" depart="18.00" from="-24392015#1" to="106184936"/>
    <trip id="19" depart="19.00" from="25071851" to="145586957#0"/>
    <trip id="20" depart="20.00" from="-837325985#1" to="75391394#0"/>
    <trip id="21" depart="21.00" from="25152805#1" to="24821284#0"/>
    <trip id="22" depart="22.00" from="-30788110#3" to="28815855#0"/>
    <trip id="23" depart="23.00" from="-297024539#1" to="153178166"/>
    <trip id="24" depart="24.00" from="919389926#0" to="25439144#0"/>
    <trip id="25" depart="25.00" from="221329646" to="264018794"/>
    <trip id="26" depart="26.00" from="456540540" to="341865897#1"/>
    <trip id="27" depart="27.00" from="-628276442#3" to="-1376134753#1"/>
    <trip id="28" depart="28.00" from="112320160" to="1022234063#3"/>
    <trip id="29" depart="29.00" from="-48705326#3" to="78196859#1"/>
    <trip id="30" depart="30.00" from="686500127#0" to="206880052"/>
    <trip id="31" depart="31.00" from="-834338003#3" to="-83675716"/>
    <trip id="32" depart="32.00" from="23778348#0" to="62194287#0"/>
    <trip id="33" depart="33.00" from="153148689" to="-689359241#1"/>
    <trip id="34" depart="34.00" from="949130867#0" to="217197494#1"/>
    <trip id="35" depart="35.00" from="-23778393#1" to="-153672339#9"/>
    <trip id="36" depart="36.00" from="-25031296" to="25117112#1"/>
    <trip id="37" depart="37.00" from="359671126#1" to="195819853"/>
    <trip id="38" depart="38.00" from="-19801361#1" to="153672336#0"/>
    <trip id="39" depart="39.00" from="-1117204229#1" to="277424372#0"/>
    <trip id="40" depart="40.00" from="26262400#0" to="219432045#4"/>
    <trip id="41" depart="41.00" from="-25130418" to="19803688"/>
    <trip id="42" depart="42.00" from="546145252#0" to="101326682#0"/>
    <trip id="43" depart="43.00" from="216757315#0" to="-407475423#1"/>
    <trip id="44" depart="44.00" from="682601485#0" to="545742967"/>
    <trip id="45" depart="45.00" from="24559263" to="-297024539#1"/>
    <trip id="46" depart="46.00" from="30788110#0" to="221329626"/>
    <trip id="47" depart="47.00" from="334054564" to="218323960#0"/>
    <trip id="48" depart="48.00" from="-101326682#2" to="127908435#0"/>
    <trip id="49" depart="49.00" from="547861715" to="448469114"/>
    <trip id="50" depart="50.00" from="1088129792#0" to="-195550161"/>
    <trip id="51" depart="51.00" from="547256628" to="80526315"/>
    <trip id="52" depart="52.00" from="-23257792" to="216757322#0"/>
    <trip id="53" depart="53.00" from="-206880047" to="315156045"/>
    <trip id="54" depart="54.00" from="-834792618" to="546411763#1"/>
    <trip id="55" depart="55.00" from="180640939#0" to="-625558757#3"/>
    <trip id="56" depart="56.00" from="217474199#6" to="289095165"/>
    <trip id="57" depart="57.00" from="-439211446" to="1187669413#1"/>
    <trip id="58" depart="58.00" from="94092847#7" to="25530612#1"/>
    <trip id="59" depart="59.00" from="195031599#0" to="217300259"/>
    <trip id="60" depart="60.00" from="1214642911" to="242707359"/>
    <trip id="61" depart="61.00" from="-65372863" to="-689359241#6"/>
    <trip id="62" depart="62.00" from="-21040277" to="25130420"/>
    <trip id="63" depart="63.00" from="-628276442#12" to="669428181"/>
    <trip id="64" depart="64.00" from="-694435536#1" to="26256115"/>
    <trip id="65" depart="65.00" from="741999611" to="237025647#3"/>
    <trip id="66" depart="66.00" from="37830568#0" to="-46583530#1"/>
    <trip id="67" depart="67.00" from="-24217006" to="19801693"/>
    <trip id="68" depart="68.00" from="180640939#0" to="216565683#0"/>
    <trip id="69" depart="69.00" from="887288445#1" to="-24837773"/>
    <trip id="70" depart="70.00" from="153672339#0" to="1335317998"/>
    <trip id="71" depart="71.00" from="497905725" to="-840207983#0"/>
    <trip id="72" depart="72.00" from="-37833000" to="199537369"/>
    <trip id="73" depart="73.00" from="180638763" to="106184942"/>
    <trip id="74" depart="74.00" from="19801121" to="523846439#0"/>
    <trip id="75" depart="75.00" from="219432045#2" to="-164657625"/>
    <trip id="76" depart="76.00" from="830758487#0" to="720475829"/>
    <trip id="77" depart="77.00" from="216565686#2" to="-653917516#12"/>
    <trip id="78" depart="78.00" from="153178166" to="-19801180"/>
    <trip id="79" depart="79.00" from="-835048386" to="359671124#1"/>
    <trip id="80" depart="80.00" from="19843349" to="196713930#1"/>
    <trip id="81" depart="81.00" from="825434646#0" to="943235559"/>
    <trip id="82" depart="82.00" from="221329643#0" to="277424366#0"/>
    <trip id="83" depart="83.00" from="-28804193#1" to="113757485#0"/>
    <trip id="84" depart="84.00" from="829894545#1" to="24157630#3"/>
    <trip id="85" depart="85.00" from="217499935#0" to="300358971#0"/>
    <trip id="86" depart="86.00" from="-184308569" to="24215572#1"/>
    <trip id="87" depart="87.00" from="216757319" to="48429651#1"/>
    <trip id="88" depart="88.00" from="-29259948#0" to="828600598#0"/>
    <trip id="89" depart="89.00" from="-22727591#2" to="-438131500#1"/>
    <trip id="90" depart="90.00" from="24164608#7" to="26342686#0"/>
    <trip id="91" depart="91.00" from="-683370248" to="-259241559"/>
    <trip id="92" depart="92.00" from="564607399" to="-835098092"/>
    <trip id="93" depart="93.00" from="24164607" to="25046862#0"/>
    <trip id="94" depart="94.00" from="176494049#1" to="24207680#6"/>
    <trip id="95" depart="95.00" from="217197485#0" to="74519018#1"/>
    <trip id="96" depart="96.00" from="-456207835#0" to="277424361#2"/>
    <trip id="97" depart="97.00" from="-708056660#0" to="166843151#0"/>
    <trip id="98" depart="98.00" from="25805343#0" to="114324807"/>
    <trip id="99" depart="99.00" from="112320161#0" to="30596843"/>
    <trip id="100" depart="100.00" from="-21094552" to="206880051#1"/>
    <trip id="101" depart="101.00" from="964350947#0" to="945765464"/>
    <trip id="102" depart="102.00" from="-216987193#1" to="-65372651"/>
    <trip id="103" depart="103.00" from="550831824#0" to="552853679"/>
    <trip id="104" depart="104.00" from="1385648669" to="-307157806#4"/>
    <trip id="105" depart="105.00" from="443761960#0" to="277117070#0"/>
    <trip id="106" depart="106.00" from="247802004" to="918558383"/>
    <trip id="107" depart="107.00" from="25439144#6" to="-107693169#0"/>
    <trip id="108" depart="108.00" from="40716733" to="114324804#2"/>
    <trip id="109" depart="109.00" from="-26116275#1" to="-25708365#3"/>
    <trip id="110" depart="110.00" from="-24821284#2" to="22813412#1"/>
    <trip id="111" depart="111.00" from="277117085#1" to="-552844892"/>
    <trip id="112" depart="112.00" from="25071851" to="1015107452"/>
    <trip id="113" depart="113.00" from="216608972#0" to="669428181"/>
    <trip id="114" depart="114.00" from="180640939#0" to="1055769951#0"/>
    <trip id="115" depart="115.00" from="-103310902" to="333129875"/>
    <trip id="116" depart="116.00" from="25116633" to="101162129#1"/>
    <trip id="117" depart="117.00" from="29259885#1" to="227333677#3"/>
    <trip id="118" depart="118.00" from="187102376#0" to="-1111164447#1"/>
    <trip id="119" depart="119.00" from="-217474200" to="557654286#3"/>
    <trip id="120" depart="120.00" from="628276442#0" to="221329668"/>
    <trip id="121" depart="121.00" from="443761963" to="24193282#0"/>
    <trip id="122" depart="122.00" from="-26533572#4" to="-26303204#2"/>
    <trip id="123" depart="123.00" from="1088384008" to="627370853#0"/>
    <trip id="124" depart="124.00" from="368025821" to="513405327#0"/>
    <trip id="125" depart="125.00" from="338179045#0" to="564278097"/>
    <trip id="126" depart="126.00" from="155190161#2" to="25069630"/>
    <trip id="127" depart="127.00" from="-28804193#1" to="732685220"/>
    <trip id="128" depart="128.00" from="508909311#1" to="852688550#1"/>
    <trip id="129" depart="129.00" from="37834148#0" to="552854765#1"/>
    <trip id="130" depart="130.00" from="-1313997115#0" to="29299882#1"/>
    <trip id="131" depart="131.00" from="118304896" to="733403125#5"/>
    <trip id="132" depart="132.00" from="376694602#2" to="535724006#0"/>
    <trip id="133" depart="133.00" from="37834148#0" to="1022234063#0"/>
    <trip id="134" depart="134.00" from="359671120#0" to="-25442515"/>
    <trip id="135" depart="135.00" from="543762584" to="506268019#0"/>
    <trip id="136" depart="136.00" from="-552853683#0" to="426378531#3"/>
    <trip id="137" depart="137.00" from="19844875#1" to="1173073665"/>
    <trip id="138" depart="138.00" from="365151260#1" to="-720552242"/>
    <trip id="139" depart="139.00" from="-128280519#8" to="-475556411#1"/>
    <trip id="140" depart="140.00" from="117386953#0" to="535724006#0"/>
    <trip id="141" depart="141.00" from="829271216" to="1068450560"/>
    <trip id="142" depart="142.00" from="831244563#1" to="-407475423#1"/>
    <trip id="143" depart="143.00" from="82803928" to="1022234060"/>
    <trip id="144" depart="144.00" from="-248801781#1" to="19803682#2"/>
    <trip id="145" depart="145.00" from="277424368#0" to="1203530684#2"/>
    <trip id="146" depart="146.00" from="24430648#1" to="217284501#0"/>
    <trip id="147" depart="147.00" from="1448274562#1" to="240278097#0"/>
    <trip id="148" depart="148.00" from="-1018818190" to="720475824#0"/>
    <trip id="149" depart="149.00" from="217472549" to="277424367#3"/>
    <trip id="150" depart="150.00" from="29259910#2" to="26301634#2"/>
    <trip id="151" depart="151.00" from="1365590041" to="-220237977"/>
    <trip id="152" depart="152.00" from="255451897" to="129970780"/>
    <trip id="153" depart="153.00" from="1119705777" to="475556419#1"/>
    <trip id="154" depart="154.00" from="277117089" to="114324807"/>
    <trip id="155" depart="155.00" from="1096968966" to="187102376#0"/>
    <trip id="156" depart="156.00" from="-25757036#3" to="195065297#0"/>
    <trip id="157" depart="157.00" from="759900797#1" to="26371901"/>
    <trip id="158" depart="158.00" from="623047713" to="25023871"/>
    <trip id="159" depart="159.00" from="1068450560" to="224025494#0"/>
    <trip id="160" depart="160.00" from="-101162131" to="1091690320#0"/>
    <trip id="161" depart="161.00" from="187685308" to="24157876"/>
    <trip id="162" depart="162.00" from="25442515" to="21146533#0"/>
    <trip id="163" depart="163.00" from="196713930#1" to="-653917516#12"/>
    <trip id="164" depart="164.00" from="206880033#1" to="65371796"/>
    <trip id="165" depart="165.00" from="-231720766" to="217298910"/>
    <trip id="166" depart="166.00" from="25069632" to="1317429105"/>
    <trip id="167" depart="167.00" from="40779666#0" to="30596838#0"/>
    <trip id="168" depart="168.00" from="-431445478#1" to="-131079852#2"/>
    <trip id="169" depart="169.00" from="-72049971#2" to="216692173#0"/>
    <trip id="170" depart="170.00" from="164663599#0" to="25123134#0"/>
    <trip id="171" depart="171.00" from="216692173#4" to="-832279012#6"/>
    <trip id="172" depart="172.00" from="25517354" to="-1052724783"/>
    <trip id="173" depart="173.00" from="29545966" to="331054037"/>
    <trip id="174" depart="174.00" from="-24821281#1" to="19801131"/>
    <trip id="175" depart="175.00" from="-31764176#2" to="82751707#1"/>
    <trip id="176" depart="176.00" from="-751044382#1" to="475659219"/>
    <trip id="177" depart="177.00" from="19843701#0" to="37829708"/>
    <trip id="178" depart="178.00" from="25712568#0" to="919389926#0"/>
    <trip id="179" depart="179.00" from="24187120" to="808761591"/>
    <trip id="180" depart="180.00" from="277117087" to="217197485#0"/>
    <trip id="181" depart="181.00" from="436386456#0" to="224025494#0"/>
    <trip id="182" depart="182.00" from="206880051#1" to="-949130867#4"/>
    <trip id="183" depart="183.00" from="310383580#0" to="217472549"/>
    <trip id="184" depart="184.00" from="248897088" to="1050857253"/>
    <trip id="185" depart="185.00" from="-224025493" to="108352260"/>
    <trip id="186" depart="186.00" from="-878860212#0" to="122694168"/>
    <trip id="187" depart="187.00" from="-656908130" to="26465740#1"/>
    <trip id="188" depart="188.00" from="156105539" to="221329643#2"/>
    <trip id="189" depart="189.00" from="166843151#2" to="-564151692"/>
    <trip id="190" depart="190.00" from="179012306#5" to="665788943#1"/>
    <trip id="191" depart="191.00" from="237025647#3" to="26485828#3"/>
    <trip id="192" depart="192.00" from="48429650#1" to="31875667#1"/>
    <trip id="193" depart="193.00" from="1425225677#2" to="-1055769951#1"/>
    <trip id="194" depart="194.00" from="129970780" to="307157806#2"/>
    <trip id="195" depart="195.00" from="-552851766" to="-689359241#1"/>
    <trip id="196" depart="196.00" from="191153441#0" to="-1335317998"/>
    <trip id="197" depart="197.00" from="1204847107#1" to="26386669#0"/>
    <trip id="198" depart="198.00" from="199688064#0" to="-26303209"/>
    <trip id="199" depart="199.00" from="24822053#0" to="-1319978369#1"/>
    <trip id="200" depart="200.00" from="1498037092" to="23264329"/>
    <trip id="201" depart="201.00" from="-162932069" to="153178166"/>
    <trip id="202" depart="202.00" from="-487600854#3" to="128212105#1"/>
    <trip id="203" depart="203.00" from="307157805" to="153178166"/>
    <trip id="204" depart="204.00" from="297024545#0" to="448832519#0"/>
    <trip id="205" depart="205.00" from="-759900797#1" to="-233620426#2"/>
    <trip id="206" depart="206.00" from="253839214#0" to="357500280#2"/>
    <trip id="207" depart="207.00" from="25438221" to="30787278#1"/>
    <trip id="208" depart="208.00" from="80526321" to="-513406744#4"/>
    <trip id="209" depart="209.00" from="-127051026#7" to="-297024532#1"/>
    <trip id="210" depart="210.00" from="264018800#2" to="319911501#6"/>
    <trip id="211" depart="211.00" from="-30596838#1" to="24805542#3"/>
    <trip id="212" depart="212.00" from="411704290" to="829272137"/>
    <trip id="213" depart="213.00" from="-248801781#1" to="-131582587#14"/>
    <trip id="214" depart="214.00" from="1111164447#0" to="26371901"/>
    <trip id="215" depart="215.00" from="825474767#0" to="166843151#2"/>
    <trip id="216" depart="216.00" from="277117079" to="-22766201#5"/>
    <trip id="217" depart="217.00" from="26386669#0" to="25117112#1"/>
    <trip id="218" depart="218.00" from="-24525409" to="334305842#0"/>
    <trip id="219" depart="219.00" from="-25529720" to="903049596#0"/>
    <trip id="220" depart="220.00" from="341865898" to="1385648669"/>
    <trip id="221" depart="221.00" from="187102377#0" to="147579538#0"/>
    <trip id="222" depart="222.00" from="216789259#2" to="1345200036"/>
    <trip id="223" depart="223.00" from="46655516" to="431445483"/>
    <trip id="224" depart="224.00" from="-24805542#0" to="828600598#0"/>
    <trip id="225" depart="225.00" from="25071851" to="443761960#0"/>
    <trip id="226" depart="226.00" from="26486569#5" to="19803701"/>
    <trip id="227" depart="227.00" from="28348220#0" to="829391500#1"/>
    <trip id="228" depart="228.00" from="-856442690" to="39243862"/>
    <trip id="229" depart="229.00" from="217472549" to="216757315#1"/>
    <trip id="230" depart="230.00" from="190102384#8" to="292383023#6"/>
    <trip id="231" depart="231.00" from="-840207983#0" to="48429650#3"/>
    <trip id="232" depart="232.00" from="436386456#4" to="-240278096#1"/>
    <trip id="233" depart="233.00" from="552230300#1" to="-832279012#6"/>
    <trip id="234" depart="234.00" from="199537368" to="24822051#0"/>
    <trip id="235" depart="235.00" from="47197018#0" to="-414631280#1"/>
    <trip id="236" depart="236.00" from="-49678089" to="377115649"/>
    <trip id="237" depart="237.00" from="1218205833" to="552853691#1"/>
    <trip id="238" depart="238.00" from="264018806" to="1052999280"/>
    <trip id="239" depart="239.00" from="-1111164439" to="80526321"/>
    <trip id="240" depart="240.00" from="-23257792" to="277424368#0"/>
    <trip id="241" depart="241.00" from="216608972#0" to="309731883#1"/>
    <trip id="242" depart="242.00" from="26386669#0" to="25528738#0"/>
    <trip id="243" depart="243.00" from="216688105#0" to="372201480#0"/>
    <trip id="244" depart="244.00" from="-240278097#0" to="-700791223#10"/>
    <trip id="245" depart="245.00" from="264018788" to="117386953#0"/>
    <trip id="246" depart="246.00" from="234876446" to="216640459#0"/>
    <trip id="247" depart="247.00" from="217284503#0" to="19801153"/>
    <trip id="248" depart="248.00" from="29325780#0" to="1306395970#1"/>
    <trip id="249" depart="249.00" from="-759900797#0" to="-25944844#0"/>
    <trip id="250" depart="250.00" from="-401285423" to="-25805689#2"/>
    <trip id="251" depart="251.00" from="217300260" to="315156048"/>
    <trip id="252" depart="252.00" from="-349555055" to="-664374772#4"/>
    <trip id="253" depart="253.00" from="216565683#1" to="28348212#1"/>
    <trip id="254" depart="254.00" from="84805807#0" to="217499930"/>
    <trip id="255" depart="255.00" from="-984057383#1" to="-25031295#1"/>
    <trip id="256" depart="256.00" from="-404591810" to="-72050011#5"/>
    <trip id="257" depart="257.00" from="217298913#0" to="1045103441#0"/>
    <trip id="258" depart="258.00" from="837761115" to="22813412#1"/>
    <trip id="259" depart="259.00" from="264018796" to="-26301634#0"/>
    <trip id="260" depart="260.00" from="534563606#0" to="216894223#0"/>
    <trip id="261" depart="261.00" from="204347060" to="19844647#1"/>
    <trip id="262" depart="262.00" from="-345738513" to="-174336826#0"/>
    <trip id="263" depart="263.00" from="763274683#0" to="216692175#2"/>
    <trip id="264" depart="264.00" from="426378531#0" to="177369914"/>
    <trip id="265" depart="265.00" from="-216993331#1" to="25122978"/>
    <trip id="266" depart="266.00" from="-175716100#2" to="-29349736#4"/>
    <trip id="267" depart="267.00" from="224418374" to="116688055#2"/>
    <trip id="268" depart="268.00" from="359671125" to="-720463644#0"/>
    <trip id="269" depart="269.00" from="217197485#0" to="199688062"/>
    <trip id="270" depart="270.00" from="196713931" to="511560325"/>
    <trip id="271" depart="271.00" from="93144335#0" to="1173594080"/>
    <trip id="272" depart="272.00" from="24822051#1" to="24821284#0"/>
    <trip id="273" depart="273.00" from="29246323#0" to="80526319"/>
    <trip id="274" depart="274.00" from="-475556394#2" to="-600704985#4"/>
    <trip id="275" depart="275.00" from="-310331215" to="-227333677#3"/>
    <trip id="276" depart="276.00" from="-1024311351" to="199688062"/>
    <trip id="277" depart="277.00" from="24161432" to="1116771099"/>
    <trip id="278" depart="278.00" from="-657270894#1" to="277117085#0"/>
    <trip id="279" depart="279.00" from="26406248#0" to="206880020"/>
    <trip id="280" depart="280.00" from="26343724#8" to="720375302#2"/>
    <trip id="281" depart="281.00" from="359671120#0" to="25117109#0"/>
    <trip id="282" depart="282.00" from="181350900#0" to="221329659"/>
    <trip id="283" depart="283.00" from="25148932" to="679042052#0"/>
    <trip id="284" depart="284.00" from="-30326777#3" to="117618420#0"/>
    <trip id="285" depart="285.00" from="294637861#0" to="237025647#0"/>
    <trip id="286" depart="286.00" from="26372275#0" to="27038414#0"/>
    <trip id="287" depart="287.00" from="763418969#5" to="217162192#0"/>
    <trip id="288" depart="288.00" from="216692173#2" to="-232686867#1"/>
    <trip id="289" depart="289.00" from="114324804#2" to="-856442690"/>
    <trip id="290" depart="290.00" from="-23825058#8" to="82865015#0"/>
    <trip id="291" depart="291.00" from="80576569#1" to="992671411"/>
    <trip id="292" depart="292.00" from="25805689#3" to="1024311351"/>
    <trip id="293" depart="293.00" from="-1461004499" to="308476200#3"/>
    <trip id="294" depart="294.00" from="206880020" to="255451898"/>
    <trip id="295" depart="295.00" from="23825058#0" to="25148654"/>
    <trip id="296" depart="296.00" from="216688107" to="-24244307#2"/>
    <trip id="297" depart="297.00" from="128212105#1" to="131582587#12"/>
    <trip id="298" depart="298.00" from="25757056#0" to="50341242#2"/>
    <trip id="299" depart="299.00" from="117618420#0" to="26465739"/>
    <trip id="300" depart="300.00" from="1022234060" to="7953785"/>
    <trip id="301" depart="301.00" from="39230269#0" to="22690768#1"/>
    <trip id="302" depart="302.00" from="19843349" to="1207081636"/>
    <trip id="303" depart="303.00" from="1146550320" to="835098090#0"/>
    <trip id="304" depart="304.00" from="153672339#9" to="217284505#1"/>
    <trip id="305" depart="305.00" from="217499935#2" to="188080043"/>
    <trip id="306" depart="306.00" from="-372635877" to="1435150636#0"/>
    <trip id="307" depart="307.00" from="29986075#1" to="25117109#0"/>
    <trip id="308" depart="308.00" from="305290703#1" to="-552844892"/>
    <trip id="309" depart="309.00" from="195031599#0" to="26486576"/>
    <trip id="310" depart="310.00" from="-25529926#1" to="840207983#1"/>
    <trip id="311" depart="311.00" from="24559263" to="-828600598#2"/>
    <trip id="312" depart="312.00" from="-29318662#1" to="22727594#0"/>
    <trip id="313" depart="313.00" from="93167165#0" to="689359239#0"/>
    <trip id="314" depart="314.00" from="19846778" to="-25757036#1"/>
    <trip id="315" depart="315.00" from="440511143#0" to="217162187"/>
    <trip id="316" depart="316.00" from="277117085#0" to="217197494#0"/>
    <trip id="317" depart="317.00" from="220237978#0" to="153776606"/>
    <trip id="318" depart="318.00" from="706358694" to="217197493"/>
    <trip id="319" depart="319.00" from="549013634" to="535724006#0"/>
    <trip id="320" depart="320.00" from="-93167166#1" to="366458331#0"/>
    <trip id="321" depart="321.00" from="216893225" to="431445479#2"/>
    <trip id="322" depart="322.00" from="-984057383#1" to="114324803#2"/>
    <trip id="323" depart="323.00" from="239488608" to="975382159"/>
    <trip id="324" depart="324.00" from="216640453" to="-29349590"/>
    <trip id="325" depart="325.00" from="217472550" to="1376134754#1"/>
    <trip id="326" depart="326.00" from="220579888#0" to="221329646"/>
    <trip id="327" depart="327.00" from="19843471" to="126106953"/>
    <trip id="328" depart="328.00" from="-372636138" to="26486574#0"/>
    <trip id="329" depart="329.00" from="229227339" to="-759900797#1"/>
    <trip id="330" depart="330.00" from="330623981#0" to="-149948166"/>
    <trip id="331" depart="331.00" from="29285995#1" to="277117078#1"/>
    <trip id="332" depart="332.00" from="383197545" to="155221402#0"/>
    <trip id="333" depart="333.00" from="25530991#0" to="431445479#2"/>
    <trip id="334" depart="334.00" from="-1435150630#0" to="217178036"/>
    <trip id="335" depart="335.00" from="240278097#0" to="545673441#0"/>
    <trip id="336" depart="336.00" from="545628781#2" to="19844647#1"/>
    <trip id="337" depart="337.00" from="217197493" to="206880033#1"/>
    <trip id="338" depart="338.00" from="25443312#0" to="-29986280#5"/>
    <trip id="339" depart="339.00" from="204347060" to="832551863#1"/>
    <trip id="340" depart="340.00" from="1214642918" to="26463397"/>
    <trip id="341" depart="341.00" from="25365408" to="48429650#3"/>
    <trip id="342" depart="342.00" from="475556409" to="509547120#0"/>
    <trip id="343" depart="343.00" from="1424064902#2" to="1214642918"/>
    <trip id="344" depart="344.00" from="277117086" to="310970428"/>
    <trip id="345" depart="345.00" from="543762592" to="-1419958808#2"/>
    <trip id="346" depart="346.00" from="-199280867" to="25130420"/>
    <trip id="347" depart="347.00" from="693874505" to="949130867#0"/>
    <trip id="348" depart="348.00" from="-24244305" to="25132101"/>
    <trip id="349" depart="349.00" from="544758209#3" to="19845066"/>
    <trip id="350" depart="350.00" from="-153672339#0" to="376064320"/>
    <trip id="351" depart="351.00" from="103307171" to="151477746#0"/>
    <trip id="352" depart="352.00" from="-26486206" to="218323960#1"/>
    <trip id="353" depart="353.00" from="227333677#4" to="371870327#0"/>
    <trip id="354" depart="354.00" from="-307450605" to="-23257321"/>
    <trip id="355" depart="355.00" from="538513030#1" to="25046867"/>
    <trip id="356" depart="356.00" from="-720142726" to="688591571#0"/>
    <trip id="357" depart="357.00" from="-26463397" to="209286059#3"/>
    <trip id="358" depart="358.00" from="-78509000#7" to="-923392674"/>
    <trip id="359" depart="359.00" from="-1103979900#2" to="37833000"/>
    <trip id="360" depart="360.00" from="623047713" to="26372275#0"/>
    <trip id="361" depart="361.00" from="1273525770" to="24244307#4"/>
    <trip id="362" depart="362.00" from="25117109#0" to="19801120"/>
    <trip id="363" depart="363.00" from="-757727251" to="47197018#0"/>
    <trip id="364" depart="364.00" from="-431445478#1" to="154350011#6"/>
    <trip id="365" depart="365.00" from="229227339" to="239495546"/>
    <trip id="366" depart="366.00" from="850053172" to="25805298"/>
    <trip id="367" depart="367.00" from="-91212041" to="233620425#3"/>
    <trip id="368" depart="368.00" from="26342682#0" to="298560693"/>
    <trip id="369" depart="369.00" from="-155190161#3" to="24788596#2"/>
    <trip id="370" depart="370.00" from="216692363#0" to="661396901"/>
    <trip id="371" depart="371.00" from="245040507" to="141069819"/>
    <trip id="372" depart="372.00" from="25116633" to="25069631"/>
    <trip id="373" depart="373.00" from="26116273#0" to="277424372#1"/>
    <trip id="374" depart="374.00" from="25528428#0" to="458909125"/>
    <trip id="375" depart="375.00" from="25131943" to="118204356#0"/>
    <trip id="376" depart="376.00" from="195819853" to="24157631"/>
    <trip id="377" depart="377.00" from="28289239" to="-24236178#0"/>
    <trip id="378" depart="378.00" from="-31764176#2" to="-26464241#17"/>
    <trip id="379" depart="379.00" from="217284503#0" to="689359241#2"/>
    <trip id="380" depart="380.00" from="431445477#0" to="216757310"/>
    <trip id="381" depart="381.00" from="37829704" to="299714315#1"/>
    <trip id="382" depart="382.00" from="1214642918" to="-25708365#0"/>
    <trip id="383" depart="383.00" from="828427971" to="-28348212#0"/>
    <trip id="384" depart="384.00" from="829263696#0" to="511560325"/>
    <trip id="385" depart="385.00" from="277424361#0" to="862779715#0"/>
    <trip id="386" depart="386.00" from="829330970" to="37833000"/>
    <trip id="387" depart="387.00" from="1368284325" to="368025821"/>
    <trip id="388" depart="388.00" from="-116689885#1" to="219432045#2"/>
    <trip id="389" depart="389.00" from="19843349" to="26303203#2"/>
    <trip id="390" depart="390.00" from="25805689#3" to="24215583#1"/>
    <trip id="391" depart="391.00" from="426378531#3" to="763418969#5"/>
    <trip id="392" depart="392.00" from="-1315397849" to="564278097"/>
    <trip id="393" depart="393.00" from="-552851766" to="-204347060"/>
    <trip id="394" depart="394.00" from="430878074#0" to="684086407#0"/>
    <trip id="395" depart="395.00" from="1070812772" to="187102376#0"/>
    <trip id="396" depart="396.00" from="-26343715" to="79963250"/>
    <trip id="397" depart="397.00" from="1073354276" to="216943994"/>
    <trip id="398" depart="398.00" from="-24217568#11" to="58108840#0"/>
    <trip id="399" depart="399.00" from="-26144619" to="205108004"/>
    <trip id="400" depart="400.00" from="25757064#0" to="297024548#0"/>
    <trip id="401" depart="401.00" from="783315506" to="195031599#0"/>
    <trip id="402" depart="402.00" from="29259946#0" to="-29986280#5"/>
    <trip id="403" depart="403.00" from="216640448" to="186952087#1"/>
    <trip id="404" depart="404.00" from="808761591" to="-1379270344"/>
    <trip id="405" depart="405.00" from="80576567#1" to="497905723#1"/>
    <trip id="406" depart="406.00" from="-24345907#8" to="264018796"/>
    <trip id="407" depart="407.00" from="218323950#2" to="85866465"/>
    <trip id="408" depart="408.00" from="1326240279#4" to="171231020"/>
    <trip id="409" depart="409.00" from="46135810#6" to="206880021"/>
    <trip id="410" depart="410.00" from="24207687" to="-1271956363"/>
    <trip id="411" depart="411.00" from="-25711015#2" to="232686865"/>
    <trip id="412" depart="412.00" from="-47197018#1" to="-664374772#4"/>
    <trip id="413" depart="413.00" from="535724006#0" to="128280519#2"/>