<?xml version="1.0" encoding="UTF-8"?>

<!-- generated on 2026-04-08T23:34:56.543615+01:00 by Eclipse SUMO netconvert 1.26.0
<netconvertConfiguration xmlns:xsi="http://www.w3.org/2001/XMLSchema-instance" xsi:noNamespaceSchemaLocation="http://sumo.dlr.de/xsd/netconvertConfiguration.xsd">

    <input>
        <osm-files value="osm/frag_krakow_1.osm"/>
    </input>

    <output>
        <output-file value="net_xml/frag_krakow_1.net.xml"/>
    </output>

    <projection>
        <proj.utm value="true"/>
    </projection>

    <processing>
        <geometry.remove value="true"/>
        <roundabouts.guess value="true"/>
    </processing>

    <tls_building>
        <tls.discard-simple value="true"/>
        <tls.guess-signals value="true"/>
    </tls_building>

    <ramp_guessing>
        <ramps.guess value="true"/>
    </ramp_guessing>

    <junctions>
        <junctions.join value="true"/>
    </junctions>

    <formats>
        <osm.sidewalks value="false"/>
        <osm.crossings value="false"/>
    </formats>

</netconvertConfiguration>
-->

<net version="1.20" junctionCornerDetail="5" limitTurnSpeed="5.50" xmlns:xsi="http://www.w3.org/2001/XMLSchema-instance" xsi:noNamespaceSchemaLocation="http://sumo.dlr.de/xsd/net_file.xsd">

    <location netOffset="-422941.47,-5546563.43" convBoundary="0.00,0.00,1272.65,1372.96" origBoundary="19.923030,50.066499,19.940858,50.078750" projParameter="+proj=utm +zone=34 +ellps=WGS84 +datum=WGS84 +units=m +no_defs"/>

    <type id="highway.cycleway" priority="1" numLanes="1" speed="5.56" allow="bicycle" oneway="0" width="2.00"/>
    <type id="highway.footway" priority="1" numLanes="1" speed="2.78" allow="pedestrian" oneway="1" width="2.00"/>
    <type id="highway.living_street" priority="2" numLanes="1" speed="2.78" disallow="tram rail_urban rail rail_electric rail_fast ship container cable_car subway aircraft wheelchair scooter drone" oneway="0"/>
    <type id="highway.path" priority="1" numLanes="1" speed="5.56" allow="pedestrian bicycle" oneway="0" width="2.00"/>
    <type id="highway.pedestrian" priority="1" numLanes="1" speed="2.78" allow="pedestrian" oneway="1" width="2.00"/>
    <type id="highway.primary" priority="12" numLanes="2" speed="27.78" disallow="tram rail_urban rail rail_electric rail_fast ship container cable_car subway aircraft wheelchair scooter drone" oneway="0"/>
    <type id="highway.primary_link" priority="7" numLanes="1" speed="22.22" disallow="tram rail_urban rail rail_electric rail_fast ship container cable_car subway aircraft wheelchair scooter drone" oneway="0"/>
    <type id="highway.residential" priority="3" numLanes="1" speed="13.89" disallow="tram rail_urban rail rail_electric rail_fast ship container cable_car subway aircraft wheelchair scooter drone" oneway="0"/>
    <type id="highway.service" priority="1" numLanes="1" speed="5.56" allow="pedestrian delivery bicycle" oneway="0"/>
    <type id="highway.steps" priority="1" numLanes="1" speed="1.39" allow="pedestrian" oneway="1" width="2.00"/>
    <type id="highway.tertiary" priority="10" numLanes="1" speed="22.22" disallow="tram rail_urban rail rail_electric rail_fast ship container cable_car subway aircraft wheelchair scooter drone" oneway="0"/>
    <type id="highway.unclassified" priority="4" numLanes="1" speed="13.89" disallow="tram rail_urban rail rail_electric rail_fast ship container cable_car subway aircraft wheelchair scooter drone" oneway="0"/>
    <type id="railway.tram" priority="17" numLanes="1" speed="13.89" allow="tram" oneway="1"/>

    <edge id=":10171223716_0" function="internal">
        <lane id=":10171223716_0_0" index="0" allow="pedestrian delivery bicycle" speed="5.15" length="5.13" shape="373.00,751.93 371.88,751.02 370.75,750.65 369.62,750.84 368.48,751.57"/>
    </edge>
    <edge id=":10171223716_1" function="internal">
        <lane id=":10171223716_1_0" index="0" allow="pedestrian delivery bicycle" speed="5.56" length="10.33" shape="373.00,751.93 371.37,749.60 370.89,747.33 371.58,745.12 373.42,742.95"/>
    </edge>
    <edge id=":10171223716_2" function="internal">
        <lane id=":10171223716_2_0" index="0" allow="pedestrian delivery bicycle" speed="3.65" length="4.67" shape="373.00,751.93 372.76,750.51 373.07,749.67 373.93,749.41 375.33,749.74"/>
    </edge>
    <edge id=":10171223716_3" function="internal">
        <lane id=":10171223716_3_0" index="0" allow="pedestrian delivery bicycle" speed="5.01" length="5.04" shape="375.54,745.36 374.64,746.41 374.30,747.49 374.53,748.60 375.33,749.74"/>
    </edge>
    <edge id=":10171223716_4" function="internal">
        <lane id=":10171223716_4_0" index="0" allow="pedestrian delivery bicycle" speed="5.56" length="9.40" shape="375.54,745.36 368.48,751.57"/>
    </edge>
    <edge id=":10171223716_5" function="internal">
        <lane id=":10171223716_5_0" index="0" allow="pedestrian delivery bicycle" speed="3.65" length="4.67" shape="375.54,745.36 374.11,745.55 373.28,745.21 373.05,744.35 373.42,742.95"/>
    </edge>
    <edge id=":10171223716_6" function="internal">
        <lane id=":10171223716_6_0" index="0" allow="pedestrian delivery bicycle" speed="5.56" length="9.41" shape="366.36,749.17 373.42,742.95"/>
    </edge>
    <edge id=":10171223716_7" function="internal">
        <lane id=":10171223716_7_0" index="0" allow="pedestrian delivery bicycle" speed="5.56" length="10.17" shape="366.36,749.17 368.65,747.68 370.91,747.28 373.14,747.96 375.33,749.74"/>
    </edge>
    <edge id=":10171223716_8" function="internal">
        <lane id=":10171223716_8_0" index="0" allow="pedestrian delivery bicycle" speed="3.65" length="4.67" shape="366.36,749.17 367.79,748.98 368.62,749.31 368.85,750.18 368.48,751.57"/>
    </edge>
    <edge id=":10171224918_0" function="internal">
        <lane id=":10171224918_0_0" index="0" allow="pedestrian delivery bicycle" speed="3.65" length="4.67" shape="393.08,743.82 394.51,743.60 395.34,743.92 395.59,744.78 395.24,746.18"/>
    </edge>
    <edge id=":10171224950_0" function="internal">
        <lane id=":10171224950_0_0" index="0" allow="tram" speed="13.89" length="4.05" shape="926.05,558.30 926.92,554.34"/>
    </edge>
    <edge id=":10171224951_0" function="internal">
        <lane id=":10171224951_0_0" index="0" allow="tram" speed="13.89" length="8.23" shape="930.34,553.95 928.36,561.93"/>
    </edge>
    <edge id=":10171224952_0" function="internal">
        <lane id=":10171224952_0_0" index="0" allow="tram" speed="13.89" length="5.09" shape="932.59,531.45 934.03,526.57"/>
    </edge>
    <edge id=":10171224953_0" function="internal">
        <lane id=":10171224953_0_0" index="0" allow="tram" speed="13.89" length="7.56" shape="937.55,527.54 935.29,534.76"/>
    </edge>
    <edge id=":10204819204_0" function="internal">
        <lane id=":10204819204_0_0" index="0" allow="pedestrian delivery bicycle" speed="5.56" length="5.11" shape="748.34,438.31 745.88,442.78"/>
    </edge>
    <edge id=":10204819204_1" function="internal">
        <lane id=":10204819204_1_0" index="0" allow="pedestrian delivery bicycle" speed="3.65" length="1.44" shape="748.34,438.31 747.06,438.97"/>
    </edge>
    <edge id=":10204819204_4" function="internal">
        <lane id=":10204819204_4_0" index="0" allow="pedestrian delivery bicycle" speed="3.65" length="3.23" shape="747.06,438.97 746.17,438.94 745.66,438.20 745.54,436.77"/>
    </edge>
    <edge id=":10204819204_2" function="internal">
        <lane id=":10204819204_2_0" index="0" allow="pedestrian delivery bicycle" speed="5.56" length="5.11" shape="743.08,441.25 745.54,436.77"/>
    </edge>
    <edge id=":10204819204_3" function="internal">
        <lane id=":10204819204_3_0" index="0" allow="pedestrian delivery bicycle" speed="3.65" length="1.44" shape="743.08,441.25 744.35,440.58"/>
    </edge>
    <edge id=":10204819204_5" function="internal">
        <lane id=":10204819204_5_0" index="0" allow="pedestrian delivery bicycle" speed="3.65" length="3.23" shape="744.35,440.58 745.25,440.61 745.76,441.35 745.88,442.78"/>
    </edge>
    <edge id=":10204819209_0" function="internal">
        <lane id=":10204819209_0_0" index="0" allow="pedestrian delivery bicycle" speed="3.65" length="4.67" shape="747.15,408.28 746.47,407.02 746.49,406.12 747.21,405.60 748.65,405.46"/>
    </edge>
    <edge id=":10219700548_0" function="internal">
        <lane id=":10219700548_0_0" index="0" allow="pedestrian delivery bicycle" speed="3.65" length="4.67" shape="376.64,861.32 376.66,862.76 376.22,863.54 375.33,863.66 374.00,863.12"/>
    </edge>
    <edge id=":10549093971_0" function="internal">
        <lane id=":10549093971_0_0" index="0" allow="pedestrian bicycle" speed="2.89" length="2.92" width="2.00" shape="949.79,1023.07 950.04,1022.21 950.43,1021.82 950.99,1021.90 951.69,1022.46"/>
    </edge>
    <edge id=":10549102434_0" function="internal">
        <lane id=":10549102434_0_0" index="0" allow="pedestrian bicycle" speed="2.89" length="2.92" width="2.00" shape="937.79,981.88 937.56,982.75 937.17,983.14 936.61,983.07 935.90,982.52"/>
    </edge>
    <edge id=":10724578143_0" function="internal">
        <lane id=":10724578143_0_0" index="0" allow="pedestrian delivery bicycle" speed="3.65" length="4.67" shape="426.73,999.61 426.37,1001.01 425.74,1001.65 424.86,1001.54 423.71,1000.67"/>
    </edge>
    <edge id=":10788306595_0" function="internal">
        <lane id=":10788306595_0_0" index="0" allow="pedestrian delivery bicycle" speed="3.65" length="4.67" shape="835.10,880.20 836.19,879.26 837.07,879.08 837.73,879.68 838.19,881.05"/>
    </edge>
    <edge id=":1079816519_0" function="internal">
        <lane id=":1079816519_0_0" index="0" allow="pedestrian bicycle" speed="5.47" length="9.80" width="2.00" shape="397.74,566.24 395.52,564.05 394.96,562.24 396.07,560.81 398.84,559.76"/>
    </edge>
    <edge id=":1079816519_1" function="internal">
        <lane id=":1079816519_1_0" index="0" allow="pedestrian bicycle" speed="2.89" length="2.92" width="2.00" shape="397.74,566.24 397.46,565.38 397.57,564.83 398.07,564.59 398.97,564.66"/>
    </edge>
    <edge id=":1079816519_2" function="internal">
        <lane id=":1079816519_2_0" index="0" allow="pedestrian bicycle" speed="3.92" length="4.56" width="2.00" shape="399.52,561.65 398.22,562.14 397.69,562.81 397.94,563.64 398.97,564.66"/>
    </edge>
    <edge id=":1079816519_3" function="internal">
        <lane id=":1079816519_3_0" index="0" allow="pedestrian bicycle" speed="2.89" length="2.94" width="2.00" shape="399.52,561.65 398.64,561.43 398.24,561.04 398.30,560.49 398.84,559.76"/>
    </edge>
    <edge id=":1079902554_0" function="internal">
        <lane id=":1079902554_0_0" index="0" allow="bus bicycle" speed="13.89" length="5.18" shape="769.02,796.41 764.18,794.62"/>
        <lane id=":1079902554_0_1" index="1" disallow="tram rail_urban rail rail_electric rail_fast ship container cable_car subway aircraft wheelchair scooter drone" speed="13.89" length="5.18" shape="770.14,793.41 765.28,791.61"/>
        <lane id=":1079902554_0_2" index="2" disallow="tram rail_urban rail rail_electric rail_fast ship container cable_car subway aircraft wheelchair scooter drone" speed="13.89" length="5.18" shape="771.25,790.41 766.38,788.61"/>
    </edge>
    <edge id=":1080043161_0" function="internal">
        <lane id=":1080043161_0_0" index="0" disallow="tram rail_urban rail rail_electric rail_fast ship container cable_car subway aircraft wheelchair scooter drone" speed="8.33" length="5.18" shape="407.32,882.87 402.50,884.75"/>
    </edge>
    <edge id=":1080043218_0" function="internal">
        <lane id=":1080043218_0_0" index="0" disallow="tram rail_urban rail rail_electric rail_fast ship container cable_car subway aircraft wheelchair scooter drone" speed="8.33" length="6.15" shape="417.47,880.62 415.77,880.18 414.54,880.28 413.31,880.74 411.59,881.40"/>
    </edge>
    <edge id=":1080043218_1" function="internal">
        <lane id=":1080043218_1_0" index="0" disallow="tram rail_urban rail rail_electric rail_fast ship container cable_car subway aircraft wheelchair scooter drone" speed="8.33" length="6.37" shape="417.47,880.62 415.71,879.95 414.54,879.34 413.60,878.44 412.51,876.93"/>
    </edge>
    <edge id=":1080043255_0" function="internal">
        <lane id=":1080043255_0_0" index="0" disallow="tram rail_urban rail rail_electric rail_fast ship container cable_car subway aircraft wheelchair scooter drone" speed="8.33" length="5.11" shape="427.31,893.20 424.85,888.72"/>
    </edge>
    <edge id=":1080043333_0" function="internal">
        <lane id=":1080043333_0_0" index="0" disallow="tram rail_urban rail rail_electric rail_fast ship container cable_car subway aircraft wheelchair scooter drone" speed="7.04" length="8.78" shape="562.19,1032.94 562.55,1035.47 563.45,1037.40 564.89,1038.75 566.87,1039.52"/>
    </edge>
    <edge id=":1080043333_1" function="internal">
        <lane id=":1080043333_1_0" index="0" disallow="tram rail_urban rail rail_electric rail_fast ship container cable_car subway aircraft wheelchair scooter drone" speed="13.89" length="11.00" shape="562.19,1032.94 562.12,1036.05 561.70,1038.37 560.99,1040.66 560.04,1043.65"/>
    </edge>
    <edge id=":1080043333_2" function="internal">
        <lane id=":1080043333_2_0" index="0" disallow="tram rail_urban rail rail_electric rail_fast ship container cable_car subway aircraft wheelchair scooter drone" speed="3.68" length="1.37" shape="562.19,1032.94 561.23,1033.93"/>
    </edge>
    <edge id=":1080043333_6" function="internal">
        <lane id=":1080043333_6_0" index="0" disallow="tram rail_urban rail rail_electric rail_fast ship container cable_car subway aircraft wheelchair scooter drone" speed="3.68" length="3.42" shape="561.23,1033.93 561.16,1034.00 560.27,1034.25 559.55,1033.70 558.97,1032.34"/>
    </edge>
    <edge id=":1080043333_3" function="internal">
        <lane id=":1080043333_3_0" index="0" disallow="tram rail_urban rail rail_electric rail_fast ship container cable_car subway aircraft wheelchair scooter drone" speed="13.89" length="10.79" shape="556.94,1042.86 557.86,1039.89 558.54,1037.67 558.92,1035.42 558.97,1032.34"/>
    </edge>
    <edge id=":1080043333_4" function="internal">
        <lane id=":1080043333_4_0" index="0" disallow="tram rail_urban rail rail_electric rail_fast ship container cable_car subway aircraft wheelchair scooter drone" speed="7.49" length="2.62" shape="556.94,1042.86 558.11,1040.73 558.28,1040.63"/>
    </edge>
    <edge id=":1080043333_5" function="internal">
        <lane id=":1080043333_5_0" index="0" disallow="tram rail_urban rail rail_electric rail_fast ship container cable_car subway aircraft wheelchair scooter drone" speed="3.65" length="1.44" shape="556.94,1042.86 558.02,1041.90"/>
    </edge>
    <edge id=":1080043333_7" function="internal">
        <lane id=":1080043333_7_0" index="0" disallow="tram rail_urban rail rail_electric rail_fast ship container cable_car subway aircraft wheelchair scooter drone" speed="7.49" length="8.98" shape="558.28,1040.63 560.16,1039.47 563.08,1039.06 566.87,1039.52"/>
    </edge>
    <edge id=":1080043333_8" function="internal">
        <lane id=":1080043333_8_0" index="0" disallow="tram rail_urban rail rail_electric rail_fast ship container cable_car subway aircraft wheelchair scooter drone" speed="3.65" length="3.23" shape="558.02,1041.90 558.89,1041.71 559.57,1042.29 560.04,1043.65"/>
    </edge>
    <edge id=":10827502339_0" function="internal">
        <lane id=":10827502339_0_0" index="0" allow="pedestrian delivery bicycle" speed="3.65" length="4.67" shape="1031.58,661.14 1032.84,661.86 1033.30,662.62 1032.95,663.45 1031.82,664.34"/>
    </edge>
    <edge id=":10827502341_0" function="internal">
        <lane id=":10827502341_0_0" index="0" allow="pedestrian delivery bicycle" speed="5.56" length="6.14" shape="976.04,667.74 974.22,667.78 972.93,667.94 971.80,668.46 970.43,669.59"/>
    </edge>
    <edge id=":10827502341_1" function="internal">
        <lane id=":10827502341_1_0" index="0" allow="pedestrian delivery bicycle" speed="5.56" length="9.66" shape="976.04,667.74 973.44,667.45 971.48,666.42 970.14,664.65 969.44,662.14"/>
    </edge>
    <edge id=":10827502341_2" function="internal">
        <lane id=":10827502341_2_0" index="0" allow="pedestrian delivery bicycle" speed="3.65" length="4.67" shape="976.04,667.74 974.82,666.97 974.39,666.19 974.77,665.37 975.94,664.54"/>
    </edge>
    <edge id=":10827502341_3" function="internal">
        <lane id=":10827502341_3_0" index="0" allow="pedestrian delivery bicycle" speed="5.16" length="4.88" shape="972.61,661.71 972.97,662.98 973.64,663.88 974.63,664.40 975.94,664.54"/>
    </edge>
    <edge id=":10827502341_4" function="internal">
        <lane id=":10827502341_4_0" index="0" allow="pedestrian delivery bicycle" speed="5.56" length="8.49" shape="972.61,661.71 972.74,664.14 972.41,666.26 971.64,668.08 970.43,669.59"/>
    </edge>
    <edge id=":10827502341_5" function="internal">
        <lane id=":10827502341_5_0" index="0" allow="pedestrian delivery bicycle" speed="3.65" length="4.67" shape="972.61,661.71 971.98,663.01 971.24,663.51 970.39,663.22 969.44,662.14"/>
    </edge>
    <edge id=":10827502341_6" function="internal">
        <lane id=":10827502341_6_0" index="0" allow="pedestrian delivery bicycle" speed="5.56" length="5.46" shape="968.23,667.26 968.94,666.35 969.38,665.19 969.54,663.78 969.44,662.14"/>
    </edge>
    <edge id=":10827502341_7" function="internal">
        <lane id=":10827502341_7_0" index="0" allow="pedestrian delivery bicycle" speed="5.56" length="8.50" shape="968.23,667.26 970.11,665.67 971.67,664.89 973.43,664.62 975.94,664.54"/>
    </edge>
    <edge id=":10827502341_8" function="internal">
        <lane id=":10827502341_8_0" index="0" allow="pedestrian delivery bicycle" speed="3.65" length="4.67" shape="968.23,667.26 969.65,667.02 970.49,667.33 970.75,668.18 970.43,669.59"/>
    </edge>
    <edge id=":10827502346_0" function="internal">
        <lane id=":10827502346_0_0" index="0" allow="pedestrian delivery bicycle" speed="3.65" length="4.67" shape="949.02,727.54 948.29,728.78 947.51,729.23 946.69,728.87 945.82,727.72"/>
    </edge>
    <edge id=":10867498502_0" function="internal">
        <lane id=":10867498502_0_0" index="0" allow="pedestrian bicycle" speed="2.89" length="2.92" width="2.00" shape="1006.07,1257.34 1006.07,1258.24 1005.79,1258.72 1005.24,1258.79 1004.41,1258.44"/>
    </edge>
    <edge id=":10983957271_0" function="internal">
        <lane id=":10983957271_0_0" index="0" allow="pedestrian delivery bicycle" speed="3.65" length="4.67" shape="559.11,896.68 558.28,895.50 558.20,894.61 558.86,894.01 560.27,893.70"/>
    </edge>
    <edge id=":10994890280_0" function="internal">
        <lane id=":10994890280_0_0" index="0" allow="pedestrian delivery bicycle" speed="5.56" length="9.40" shape="843.13,1084.26 833.91,1086.13"/>
    </edge>
    <edge id=":10994890280_1" function="internal">
        <lane id=":10994890280_1_0" index="0" allow="pedestrian delivery bicycle" speed="5.56" length="10.16" shape="843.13,1084.26 840.37,1084.42 838.21,1083.65 836.64,1081.95 835.67,1079.33"/>
    </edge>
    <edge id=":10994890280_2" function="internal">
        <lane id=":10994890280_2_0" index="0" allow="pedestrian delivery bicycle" speed="3.65" length="4.67" shape="843.13,1084.26 841.79,1083.71 841.24,1083.01 841.47,1082.14 842.49,1081.12"/>
    </edge>
    <edge id=":10994890280_3" function="internal">
        <lane id=":10994890280_3_0" index="0" allow="pedestrian delivery bicycle" speed="5.08" length="5.05" shape="838.80,1078.65 839.28,1079.96 840.06,1080.81 841.13,1081.20 842.49,1081.12"/>
    </edge>
    <edge id=":10994890280_4" function="internal">
        <lane id=":10994890280_4_0" index="0" allow="pedestrian delivery bicycle" speed="5.56" length="10.22" shape="838.80,1078.65 839.00,1081.45 838.25,1083.63 836.56,1085.19 833.91,1086.13"/>
    </edge>
    <edge id=":10994890280_5" function="internal">
        <lane id=":10994890280_5_0" index="0" allow="pedestrian delivery bicycle" speed="3.65" length="4.67" shape="838.80,1078.65 838.27,1079.99 837.58,1080.55 836.71,1080.33 835.67,1079.33"/>
    </edge>
    <edge id=":10994890280_6" function="internal">
        <lane id=":10994890280_6_0" index="0" allow="pedestrian delivery bicycle" speed="5.03" length="5.01" shape="833.28,1083.00 834.57,1082.54 835.40,1081.77 835.77,1080.70 835.67,1079.33"/>
    </edge>
    <edge id=":10994890280_7" function="internal">
        <lane id=":10994890280_7_0" index="0" allow="pedestrian delivery bicycle" speed="5.56" length="9.40" shape="833.28,1083.00 842.49,1081.12"/>
    </edge>
    <edge id=":10994890280_8" function="internal">
        <lane id=":10994890280_8_0" index="0" allow="pedestrian delivery bicycle" speed="3.65" length="4.67" shape="833.28,1083.00 834.61,1083.54 835.16,1084.25 834.93,1085.11 833.91,1086.13"/>
    </edge>
    <edge id=":10994890281_0" function="internal">
        <lane id=":10994890281_0_0" index="0" allow="pedestrian delivery bicycle" speed="5.06" length="4.97" shape="827.51,1041.63 827.03,1040.35 826.27,1039.53 825.21,1039.15 823.85,1039.22"/>
    </edge>
    <edge id=":10994890281_1" function="internal">
        <lane id=":10994890281_1_0" index="0" allow="pedestrian delivery bicycle" speed="5.56" length="9.88" shape="827.51,1041.63 827.29,1038.91 827.93,1036.72 829.43,1035.04 831.78,1033.89"/>
    </edge>
    <edge id=":10994890281_2" function="internal">
        <lane id=":10994890281_2_0" index="0" allow="pedestrian delivery bicycle" speed="3.65" length="4.67" shape="827.51,1041.63 828.04,1040.29 828.73,1039.72 829.60,1039.95 830.63,1040.95"/>
    </edge>
    <edge id=":10994890281_3" function="internal">
        <lane id=":10994890281_3_0" index="0" allow="pedestrian delivery bicycle" speed="5.24" length="5.08" shape="832.77,1036.93 831.58,1037.52 830.83,1038.39 830.52,1039.53 830.63,1040.95"/>
    </edge>
    <edge id=":10994890281_4" function="internal">
        <lane id=":10994890281_4_0" index="0" allow="pedestrian delivery bicycle" speed="5.56" length="9.22" shape="832.77,1036.93 830.16,1037.76 828.36,1038.27 826.53,1038.69 823.85,1039.22"/>
    </edge>
    <edge id=":10994890281_5" function="internal">
        <lane id=":10994890281_5_0" index="0" allow="pedestrian delivery bicycle" speed="3.65" length="4.67" shape="832.77,1036.93 831.38,1036.54 830.75,1035.90 830.89,1035.02 831.78,1033.89"/>
    </edge>
    <edge id=":10994890281_6" function="internal">
        <lane id=":10994890281_6_0" index="0" allow="pedestrian delivery bicycle" speed="5.56" length="8.83" shape="823.24,1036.08 825.81,1035.57 827.56,1035.17 829.29,1034.68 831.78,1033.89"/>
    </edge>
    <edge id=":10994890281_7" function="internal">
        <lane id=":10994890281_7_0" index="0" allow="pedestrian delivery bicycle" speed="5.56" length="10.06" shape="823.24,1036.08 825.98,1035.94 828.13,1036.70 829.68,1038.37 830.63,1040.95"/>
    </edge>
    <edge id=":10994890281_8" function="internal">
        <lane id=":10994890281_8_0" index="0" allow="pedestrian delivery bicycle" speed="3.65" length="4.67" shape="823.24,1036.08 824.57,1036.63 825.11,1037.34 824.87,1038.20 823.85,1039.22"/>
    </edge>
    <edge id=":10994890286_0" function="internal">
        <lane id=":10994890286_0_0" index="0" allow="pedestrian delivery bicycle" speed="3.65" length="4.67" shape="895.03,984.78 896.20,983.94 897.09,983.84 897.70,984.49 898.03,985.90"/>
    </edge>
    <edge id=":10994890287_0" function="internal">
        <lane id=":10994890287_0_0" index="0" allow="pedestrian delivery bicycle" speed="3.65" length="4.67" shape="876.61,1012.31 877.25,1011.01 877.99,1010.51 878.84,1010.81 879.79,1011.89"/>
    </edge>
    <edge id=":11026519615_0" function="internal">
        <lane id=":11026519615_0_0" index="0" allow="pedestrian bicycle" speed="2.89" length="2.92" width="2.00" shape="869.26,906.70 869.70,905.91 870.18,905.62 870.70,905.83 871.26,906.54"/>
    </edge>
    <edge id=":11026519616_0" function="internal">
        <lane id=":11026519616_0_0" index="0" allow="pedestrian bicycle" speed="2.89" length="2.92" width="2.00" shape="872.12,916.98 871.68,917.76 871.20,918.05 870.68,917.85 870.12,917.14"/>
    </edge>
    <edge id=":11026519618_0" function="internal">
        <lane id=":11026519618_0_0" index="0" allow="pedestrian bicycle" speed="2.89" length="2.92" width="2.00" shape="862.43,905.21 862.85,904.42 863.32,904.12 863.84,904.32 864.42,905.01"/>
    </edge>
    <edge id=":11026519619_0" function="internal">
        <lane id=":11026519619_0_0" index="0" allow="pedestrian bicycle" speed="2.89" length="2.92" width="2.00" shape="865.81,918.80 865.38,919.60 864.91,919.90 864.39,919.70 863.82,919.01"/>
    </edge>
    <edge id=":1115823370_0" function="internal">
        <lane id=":1115823370_0_0" index="0" disallow="tram rail_urban rail rail_electric rail_fast ship container cable_car subway aircraft wheelchair scooter drone" speed="6.32" length="8.75" shape="558.09,1024.78 557.23,1022.60 555.84,1021.27 553.91,1020.77 551.44,1021.11"/>
    </edge>
    <edge id=":1115823370_1" function="internal">
        <lane id=":1115823370_1_0" index="0" disallow="tram rail_urban rail rail_electric rail_fast ship container cable_car subway aircraft wheelchair scooter drone" speed="8.15" length="13.94" shape="558.09,1024.78 557.77,1021.00 558.71,1017.96 560.89,1015.64 564.31,1014.04"/>
    </edge>
    <edge id=":1115823370_2" function="internal">
        <lane id=":1115823370_2_0" index="0" disallow="tram rail_urban rail rail_electric rail_fast ship container cable_car subway aircraft wheelchair scooter drone" speed="3.65" length="4.67" shape="558.09,1024.78 558.63,1023.44 559.33,1022.89 560.20,1023.12 561.22,1024.13"/>
    </edge>
    <edge id=":1115823370_3" function="internal">
        <lane id=":1115823370_3_0" index="0" disallow="tram rail_urban rail rail_electric rail_fast ship container cable_car subway aircraft wheelchair scooter drone" speed="6.69" length="9.10" shape="565.24,1017.10 563.02,1018.14 561.61,1019.66 561.01,1021.66 561.22,1024.13"/>
    </edge>
    <edge id=":1115823370_4" function="internal">
        <lane id=":1115823370_4_0" index="0" disallow="tram rail_urban rail rail_electric rail_fast ship container cable_car subway aircraft wheelchair scooter drone" speed="13.89" length="14.37" shape="565.24,1017.10 551.44,1021.11"/>
    </edge>
    <edge id=":1115823370_5" function="internal">
        <lane id=":1115823370_5_0" index="0" disallow="tram rail_urban rail rail_electric rail_fast ship container cable_car subway aircraft wheelchair scooter drone" speed="3.65" length="1.44" shape="565.24,1017.10 563.86,1016.69"/>
    </edge>
    <edge id=":1115823370_9" function="internal">
        <lane id=":1115823370_9_0" index="0" disallow="tram rail_urban rail rail_electric rail_fast ship container cable_car subway aircraft wheelchair scooter drone" speed="3.65" length="3.23" shape="563.86,1016.69 563.25,1016.04 563.40,1015.16 564.31,1014.04"/>
    </edge>
    <edge id=":1115823370_6" function="internal">
        <lane id=":1115823370_6_0" index="0" disallow="tram rail_urban rail rail_electric rail_fast ship container cable_car subway aircraft wheelchair scooter drone" speed="13.89" length="14.69" shape="549.73,1014.94 554.30,1014.18 557.87,1014.30 561.01,1014.52 564.31,1014.04"/>
    </edge>
    <edge id=":1115823370_7" function="internal">
        <lane id=":1115823370_7_0" index="0" disallow="tram rail_urban rail rail_electric rail_fast ship container cable_car subway aircraft wheelchair scooter drone" speed="7.86" length="3.96" shape="550.58,1018.03 554.51,1017.50"/>
    </edge>
    <edge id=":1115823370_8" function="internal">
        <lane id=":1115823370_8_0" index="0" disallow="tram rail_urban rail rail_electric rail_fast ship container cable_car subway aircraft wheelchair scooter drone" speed="3.65" length="1.44" shape="550.58,1018.03 551.95,1018.48"/>
    </edge>
    <edge id=":1115823370_10" function="internal">
        <lane id=":1115823370_10_0" index="0" disallow="tram rail_urban rail rail_electric rail_fast ship container cable_car subway aircraft wheelchair scooter drone" speed="7.86" length="10.18" shape="554.51,1017.50 557.60,1018.34 559.83,1020.56 561.22,1024.13"/>
    </edge>
    <edge id=":1115823370_11" function="internal">
        <lane id=":1115823370_11_0" index="0" disallow="tram rail_urban rail rail_electric rail_fast ship container cable_car subway aircraft wheelchair scooter drone" speed="3.65" length="3.23" shape="551.95,1018.48 552.55,1019.14 552.38,1020.02 551.44,1021.11"/>
    </edge>
    <edge id=":11258539333_0" function="internal">
        <lane id=":11258539333_0_0" index="0" allow="pedestrian delivery bicycle" speed="3.65" length="4.67" shape="467.71,976.67 468.99,977.33 469.48,978.08 469.17,978.92 468.07,979.85"/>
    </edge>
    <edge id=":11258539335_0" function="internal">
        <lane id=":11258539335_0_0" index="0" allow="pedestrian delivery bicycle" speed="5.56" length="5.11" shape="467.87,979.87 462.82,980.63"/>
    </edge>
    <edge id=":11258539335_1" function="internal">
        <lane id=":11258539335_1_0" index="0" allow="pedestrian delivery bicycle" speed="3.65" length="1.44" shape="467.87,979.87 466.59,979.21"/>
    </edge>
    <edge id=":11258539335_4" function="internal">
        <lane id=":11258539335_4_0" index="0" allow="pedestrian delivery bicycle" speed="3.65" length="3.23" shape="466.59,979.21 466.11,978.46 466.41,977.62 467.52,976.69"/>
    </edge>
    <edge id=":11258539335_2" function="internal">
        <lane id=":11258539335_2_0" index="0" allow="pedestrian delivery bicycle" speed="5.56" length="5.34" shape="462.24,977.48 467.52,976.69"/>
    </edge>
    <edge id=":11258539335_3" function="internal">
        <lane id=":11258539335_3_0" index="0" allow="pedestrian delivery bicycle" speed="3.65" length="1.44" shape="462.24,977.48 463.56,978.05"/>
    </edge>