<additional>
    <edgeData id="edge_stats"
              file="C:\Users\USER\Desktop\MiSS\Repo\MiSS_Braess_Paradox\Stage3\output_B_bez_krawedzi\edge_data.xml"
              begin="1800"
              end="60800"
              excludeEmpty="true"/>
</additional>