<trips>
    <trip id="veh0" depart="3960.4" from="25122978" to="-1343959021"/>
    <trip id="veh1" depart="9744.5" from="1022234061" to="297804536#6"/>
    <trip id="veh2" depart="6075.7" from="591606416" to="-25031296"/>
    <trip id="veh3" depart="7277.1" from="-1435150630#0" to="-984057383#1"/>
    <trip id="veh4" depart="9358.3" from="-1380084352#2" to="-827819460#0"/>
    <trip id="veh5" depart="8485.4" from="221329643#0" to="101322361#0"/>
    <trip id="veh6" depart="11603.8" from="426378517#0" to="-107693169#0"/>
    <trip id="veh7" depart="2238.9" from="277117073#0" to="153263840#1"/>
    <trip id="veh8" depart="1335.5" from="82206924#0" to="153173542#0"/>
    <trip id="veh9" depart="8693.7" from="-25598863" to="48429651#2"/>
    <trip id="veh10" depart="7721.7" from="407697740" to="29270845"/>
    <trip id="veh11" depart="7949.4" from="840207983#1" to="195031597"/>
    <trip id="veh12" depart="12408.6" from="455094759#0" to="24857867"/>
    <trip id="veh13" depart="659.9" from="237025647#2" to="277117085#2"/>
    <trip id="veh14" depart="1149.0" from="103307171" to="1315948511"/>
    <trip id="veh15" depart="4002.8" from="1060253200#0" to="-25944988#1"/>
    <trip id="veh16" depart="5330.6" from="25117109#1" to="181350900#0"/>
    <trip id="veh17" depart="13487.8" from="-878860212#0" to="118304896"/>
    <trip id="veh18" depart="2464.4" from="25439144#3" to="24787460#1"/>
    <trip id="veh19" depart="5464.2" from="29270845" to="-48373498"/>
    <trip id="veh20" depart="8020.1" from="918558383" to="25122978"/>
    <trip id="veh21" depart="11174.4" from="264018801" to="47944097"/>
    <trip id="veh22" depart="4542.5" from="103310908" to="-1450913416"/>
    <trip id="veh23" depart="13577.9" from="1183969861" to="-899128008#3"/>
    <trip id="veh24" depart="9438.3" from="552844877" to="1425309294#0"/>
    <trip id="veh25" depart="6607.5" from="19803664" to="686500128#2"/>
    <trip id="veh26" depart="8083.7" from="118201637" to="1113718372"/>
    <trip id="veh27" depart="12928.6" from="117386953#0" to="24157631"/>
    <trip id="veh28" depart="14364.5" from="19803788" to="1009151105"/>
    <trip id="veh29" depart="678.5" from="217300259" to="-25438221"/>
    <trip id="veh30" depart="11405.9" from="-26403142#1" to="25071851"/>
    <trip id="veh31" depart="5495.3" from="206880020" to="-22727687"/>
    <trip id="veh32" depart="13983.5" from="943235561" to="218323960#0"/>
    <trip id="veh33" depart="10378.4" from="538322446#1" to="-118204357#1"/>
    <trip id="veh34" depart="3842.3" from="264018796" to="219030917"/>
    <trip id="veh35" depart="6260.6" from="25130420" to="-26485828#3"/>
    <trip id="veh36" depart="12612.3" from="216757313" to="818876721"/>
    <trip id="veh37" depart="2572.6" from="117386953#0" to="217197494#1"/>
    <trip id="veh38" depart="4297.6" from="686500127#0" to="549146500#1"/>
    <trip id="veh39" depart="2200.9" from="25122977" to="24787460#1"/>
    <trip id="veh40" depart="11212.2" from="339315233" to="219432045#4"/>
    <trip id="veh41" depart="4667.8" from="218323960#1" to="-101326685"/>
    <trip id="veh42" depart="12653.6" from="-131079852#2" to="732685220"/>
    <trip id="veh43" depart="834.1" from="456181458" to="141069819"/>
    <trip id="veh44" depart="1233.4" from="552851764#1" to="79364928#2"/>
    <trip id="veh45" depart="10952.7" from="217162193" to="-233620425#9"/>
    <trip id="veh46" depart="6844.1" from="342363345" to="-30597035#8"/>
    <trip id="veh47" depart="12563.0" from="221329659" to="118204354#0"/>
    <trip id="veh48" depart="7765.9" from="206880021" to="-907862379"/>
    <trip id="veh49" depart="4488.7" from="29270845" to="-829391500#4"/>
    <trip id="veh50" depart="6308.6" from="93624628" to="25517368"/>
    <trip id="veh51" depart="3235.6" from="217499925" to="-292689657#5"/>
    <trip id="veh52" depart="3313.7" from="153178166" to="24207679#6"/>
    <trip id="veh53" depart="9087.9" from="101322356" to="-234876442#1"/>
    <trip id="veh54" depart="12378.7" from="103310906" to="65371796"/>
    <trip id="veh55" depart="9633.3" from="-234875263" to="1073354274#1"/>
    <trip id="veh56" depart="13471.4" from="-93167166#1" to="-312068531"/>
    <trip id="veh57" depart="11298.5" from="231720764#0" to="216789273#0"/>
    <trip id="veh58" depart="1395.8" from="40776780" to="-72049971#2"/>
    <trip id="veh59" depart="6725.2" from="209289358" to="206880021"/>
    <trip id="veh60" depart="14172.0" from="29270845" to="264018788"/>
    <trip id="veh61" depart="4886.0" from="-25711857" to="19843572"/>
    <trip id="veh62" depart="2739.0" from="538978472" to="112320160"/>
    <trip id="veh63" depart="4011.1" from="216692175#0" to="206880020"/>
    <trip id="veh64" depart="6381.1" from="112320161#0" to="718712218"/>
    <trip id="veh65" depart="728.5" from="538513030#1" to="221329665"/>
    <trip id="veh66" depart="13953.5" from="988802609" to="46096834"/>
    <trip id="veh67" depart="2394.9" from="720444271#0" to="49678089"/>
    <trip id="veh68" depart="5775.0" from="217162193" to="-93167166#1"/>
    <trip id="veh69" depart="14188.4" from="-216993331#2" to="195031598#0"/>
    <trip id="veh70" depart="6552.1" from="118204356#0" to="372636138"/>
    <trip id="veh71" depart="14334.1" from="206880021" to="82206924#0"/>
    <trip id="veh72" depart="2229.1" from="227333677#1" to="277424372#1"/>
    <trip id="veh73" depart="8340.2" from="1365590041" to="830758488#1"/>
    <trip id="veh74" depart="823.2" from="221329630" to="30971877#0"/>
    <trip id="veh75" depart="12279.2" from="24157630#3" to="217209134#0"/>
    <trip id="veh76" depart="1153.6" from="-453923703#2" to="825964223"/>
    <trip id="veh77" depart="9723.1" from="-692469260" to="24345907#9"/>
    <trip id="veh78" depart="12820.1" from="1067620219" to="-29259885#0"/>
    <trip id="veh79" depart="8919.1" from="1112470387#0" to="24339330"/>
    <trip id="veh80" depart="7528.1" from="199688064#0" to="24157368"/>
    <trip id="veh81" depart="10313.2" from="742001964#0" to="-834338003#3"/>
    <trip id="veh82" depart="9672.3" from="1073354274#1" to="19803664"/>
    <trip id="veh83" depart="10826.8" from="1380084351" to="1431090265"/>
    <trip id="veh84" depart="14377.7" from="-23825060#0" to="216757319"/>
    <trip id="veh85" depart="3069.4" from="943235561" to="-239495552#1"/>
    <trip id="veh86" depart="12684.4" from="118204356#0" to="741999611"/>
    <trip id="veh87" depart="2271.6" from="552851766" to="187148365#2"/>
    <trip id="veh88" depart="8808.2" from="458909126#2" to="277117085#1"/>
    <trip id="veh89" depart="112.7" from="906770625" to="25530612#1"/>
    <trip id="veh90" depart="9552.8" from="431445480#0" to="137885140"/>
    <trip id="veh91" depart="1662.2" from="757727251" to="-31875667#1"/>
    <trip id="veh92" depart="3921.8" from="-26342686#1" to="224025494#0"/>
    <trip id="veh93" depart="2931.8" from="24787441" to="277424368#0"/>
    <trip id="veh94" depart="7034.9" from="25117109#0" to="117386958"/>
    <trip id="veh95" depart="1329.1" from="65371796" to="48429651#1"/>
    <trip id="veh96" depart="51.1" from="206880021" to="1243731581"/>
    <trip id="veh97" depart="3772.2" from="359671120#0" to="25117112#1"/>
    <trip id="veh98" depart="6158.7" from="300358970#0" to="221329674"/>
    <trip id="veh99" depart="12716.7" from="-1155625064#1" to="-240474661"/>
    <trip id="veh100" depart="12018.2" from="627370853#1" to="221329643#0"/>
    <trip id="veh101" depart="1835.2" from="239495552#4" to="-401046327"/>
    <trip id="veh102" depart="11464.2" from="1412811001" to="623047713"/>
    <trip id="veh103" depart="3025.1" from="538322446#1" to="623047713"/>
    <trip id="veh104" depart="11233.7" from="112320161#0" to="-26099409"/>
    <trip id="veh105" depart="8937.5" from="552854767" to="19844647#1"/>
    <trip id="veh106" depart="12450.3" from="-431445483" to="733403125#5"/>
    <trip id="veh107" depart="12692.4" from="850053172" to="430292700"/>
    <trip id="veh108" depart="4783.5" from="-1343006588" to="297804536#6"/>
    <trip id="veh109" depart="12442.5" from="733403125#5" to="384983687"/>
    <trip id="veh110" depart="11338.2" from="430292700" to="118304896"/>
    <trip id="veh111" depart="12363.7" from="-26372275#3" to="552230299"/>
    <trip id="veh112" depart="6628.4" from="1022234060" to="431445480#0"/>
    <trip id="veh113" depart="3277.4" from="1392975571#0" to="37829708"/>
    <trip id="veh114" depart="4727.0" from="-1335317999" to="-751044385"/>
    <trip id="veh115" depart="4019.4" from="545673771#0" to="829263696#0"/>
    <trip id="veh116" depart="14128.6" from="25130786" to="19803798"/>
    <trip id="veh117" depart="1660.9" from="218323982#0" to="759771315#1"/>
    <trip id="veh118" depart="13860.5" from="832551863#1" to="-637909741"/>
    <trip id="veh119" depart="6257.7" from="118204357#0" to="-26380685#19"/>
    <trip id="veh120" depart="8729.4" from="29259955" to="1424064902#2"/>
    <trip id="veh121" depart="8302.9" from="217301598" to="196713930#1"/>
    <trip id="veh122" depart="24.4" from="114324803#2" to="277117090"/>
    <trip id="veh123" depart="10359.8" from="720375295" to="219432045#0"/>
    <trip id="veh124" depart="5244.8" from="302727393" to="26343727#0"/>
    <trip id="veh125" depart="4754.9" from="-233622310" to="26143741#1"/>
    <trip id="veh126" depart="10364.5" from="1425225677#2" to="48705329#0"/>
    <trip id="veh127" depart="5880.9" from="1380084351" to="1415689047"/>
    <trip id="veh128" depart="1832.9" from="19843471" to="134668263#0"/>
    <trip id="veh129" depart="9753.4" from="200654866#1" to="759900795"/>
    <trip id="veh130" depart="4333.7" from="623047713" to="24822053#0"/>
    <trip id="veh131" depart="4131.6" from="221329648#0" to="-101326682#2"/>
    <trip id="veh132" depart="9427.8" from="209286059#3" to="239488609"/>
    <trip id="veh133" depart="3077.3" from="216789262#0" to="216608972#2"/>
    <trip id="veh134" depart="11462.8" from="216789273#1" to="623047713"/>
    <trip id="veh135" depart="7422.5" from="-552844891" to="-24821284#2"/>
    <trip id="veh136" depart="11785.3" from="25116634" to="153148686#0"/>
    <trip id="veh137" depart="3234.8" from="315156046" to="26386669#8"/>
    <trip id="veh138" depart="3525.7" from="-828139880#1" to="-1336421108#4"/>
    <trip id="veh139" depart="1048.7" from="216894223#0" to="497905724"/>
    <trip id="veh140" depart="2799.9" from="199537369" to="25071851"/>
    <trip id="veh141" depart="3513.4" from="277117067" to="217197485#1"/>
    <trip id="veh142" depart="10813.9" from="256630848#14" to="-1070812772"/>
    <trip id="veh143" depart="6122.1" from="359671120#0" to="-26303209"/>
    <trip id="veh144" depart="7458.6" from="-58843877" to="82206924#0"/>
    <trip id="veh145" depart="12216.0" from="-19801546#7" to="112320161#0"/>
    <trip id="veh146" depart="9613.1" from="216757317" to="383197545"/>
    <trip id="veh147" depart="13680.6" from="911803861" to="24376990#0"/>
    <trip id="veh148" depart="10357.5" from="587231932" to="24821284#0"/>
    <trip id="veh149" depart="7889.4" from="217284501#2" to="455095139"/>
    <trip id="veh150" depart="6835.3" from="612258463#2" to="304629930#0"/>
    <trip id="veh151" depart="9182.3" from="1155077314" to="1121494298"/>
    <trip id="veh152" depart="9025.2" from="342363345" to="217499932#0"/>
    <trip id="veh153" depart="4114.5" from="1219636744#0" to="-24232332"/>
    <trip id="veh154" depart="7778.2" from="1214642911" to="1450913417"/>
    <trip id="veh155" depart="9992.9" from="-340398943#0" to="1050857256"/>
    <trip id="veh156" depart="5869.4" from="277117087" to="-227333677#1"/>
    <trip id="veh157" depart="2978.4" from="221329634" to="199537369"/>
    <trip id="veh158" depart="8410.7" from="200654866#1" to="65371777"/>
    <trip id="veh159" depart="11024.6" from="277117067" to="533275337#1"/>
    <trip id="veh160" depart="5065.3" from="195031599#0" to="-107356854#13"/>
    <trip id="veh161" depart="13729.4" from="31764253" to="5095973#1"/>
    <trip id="veh162" depart="7864.3" from="199688064#0" to="308476200#5"/>
    <trip id="veh163" depart="3159.7" from="24787439#1" to="101322361#1"/>
    <trip id="veh164" depart="4840.3" from="216222480" to="-1419958810"/>
    <trip id="veh165" depart="2376.6" from="264018794" to="19843701#0"/>
    <trip id="veh166" depart="8960.5" from="216789264" to="-30596838#0"/>
    <trip id="veh167" depart="8127.2" from="-1380089316" to="19803399"/>
    <trip id="veh168" depart="1954.1" from="-1380089316" to="25131943"/>
    <trip id="veh169" depart="5459.1" from="216789259#0" to="-19801546#7"/>
    <trip id="veh170" depart="10961.7" from="-907862379" to="1495403715"/>
    <trip id="veh171" depart="11979.7" from="195031598#0" to="315156048"/>
    <trip id="veh172" depart="279.1" from="1125416657#1" to="-24731529"/>
    <trip id="veh173" depart="5039.4" from="219432045#4" to="992671411"/>
    <trip id="veh174" depart="9385.3" from="25525864#0" to="368152910#1"/>
    <trip id="veh175" depart="2870.8" from="31875667#0" to="80526321"/>
    <trip id="veh176" depart="1817.6" from="-131582587#11" to="-426378522#1"/>
    <trip id="veh177" depart="3138.7" from="26342682#2" to="229225622"/>
    <trip id="veh178" depart="2416.2" from="277117078#1" to="345738495#0"/>
    <trip id="veh179" depart="1649.3" from="24787452" to="30971319#3"/>
    <trip id="veh180" depart="1556.6" from="431445484" to="828600598#0"/>
    <trip id="veh181" depart="9753.8" from="-1369377923#1" to="1422313488"/>
    <trip id="veh182" depart="10296.2" from="82206924#0" to="19803682#0"/>
    <trip id="veh183" depart="9032.3" from="-24164608#6" to="26486570#1"/>
    <trip id="veh184" depart="12244.2" from="-26037119#4" to="359671123#0"/>
    <trip id="veh185" depart="14167.4" from="24731528#3" to="-292689657#5"/>
    <trip id="veh186" depart="6168.6" from="370498224#0" to="157868807"/>
    <trip id="veh187" depart="4913.7" from="187685308" to="217284504"/>
    <trip id="veh188" depart="1519.8" from="497905724" to="438131500#1"/>
    <trip id="veh189" depart="11933.4" from="826253014" to="25117109#1"/>
    <trip id="veh190" depart="10566.7" from="277117089" to="216222480"/>
    <trip id="veh191" depart="11638.1" from="828600681#0" to="1204250818"/>
    <trip id="veh192" depart="6272.3" from="219432044" to="217162189"/>
    <trip id="veh193" depart="12264.7" from="292856008#0" to="1188722209"/>
    <trip id="veh194" depart="12695.5" from="455095139" to="-25031295#1"/>
    <trip id="veh195" depart="8788.8" from="1096657788" to="216789262#0"/>
    <trip id="veh196" depart="12253.7" from="195031598#0" to="-1419958808#1"/>
    <trip id="veh197" depart="11488.8" from="-664374772#4" to="-91212041"/>
    <trip id="veh198" depart="10097.0" from="153267229" to="552853680#1"/>
    <trip id="veh199" depart="13652.1" from="1232185699" to="-1171357688"/>
    <trip id="veh200" depart="7035.5" from="-248801781#0" to="28289232"/>
    <trip id="veh201" depart="9301.0" from="331054037" to="26486570#1"/>
    <trip id="veh202" depart="1340.0" from="217197480" to="37829703"/>
    <trip id="veh203" depart="4409.4" from="1015107452" to="26532981"/>
    <trip id="veh204" depart="7645.3" from="239495552#0" to="216789273#1"/>
    <trip id="veh205" depart="4763.4" from="206880023#1" to="30787275"/>
    <trip id="veh206" depart="3620.2" from="277117085#1" to="121108765#4"/>
    <trip id="veh207" depart="1721.6" from="-29259946#2" to="-741685982"/>
    <trip id="veh208" depart="2666.2" from="218323976" to="338179059"/>
    <trip id="veh209" depart="10434.0" from="-94092847#11" to="217162191"/>
    <trip id="veh210" depart="4075.2" from="852687657" to="217499935#0"/>
    <trip id="veh211" depart="3275.8" from="-25944551" to="-759900795"/>
    <trip id="veh212" depart="7691.5" from="-653917516#5" to="-1246831928"/>
    <trip id="veh213" depart="7968.4" from="1218205833" to="84968022#0"/>
    <trip id="veh214" depart="12505.8" from="277117070#0" to="-30326777#2"/>
    <trip id="veh215" depart="8266.5" from="217197480" to="552844877"/>
    <trip id="veh216" depart="2654.8" from="216789265" to="216598704"/>
    <trip id="veh217" depart="6879.3" from="-19801610#1" to="759900797#1"/>
    <trip id="veh218" depart="1066.8" from="438131500#0" to="19842465"/>
    <trip id="veh219" depart="2148.4" from="25071851" to="-204347060"/>
    <trip id="veh220" depart="14312.4" from="229225622" to="1390308501"/>
    <trip id="veh221" depart="8731.0" from="-28804193#1" to="339315234#0"/>
    <trip id="veh222" depart="7525.0" from="37828459#1" to="1023600074#0"/>
    <trip id="veh223" depart="12386.4" from="216696187#0" to="216640450"/>
    <trip id="veh224" depart="8942.8" from="919389926#0" to="1395834518#0"/>
    <trip id="veh225" depart="13645.3" from="24788596#0" to="299714315#1"/>
    <trip id="veh226" depart="9510.2" from="-846486041" to="-899128008#3"/>
    <trip id="veh227" depart="1080.9" from="-453923703#1" to="-560780770"/>
    <trip id="veh228" depart="8550.9" from="-103310902" to="216696187#0"/>
    <trip id="veh229" depart="10180.2" from="1326227652" to="1050857257#1"/>
    <trip id="veh230" depart="9898.3" from="277117085#1" to="216757313"/>
    <trip id="veh231" depart="9000.8" from="718931808" to="377115649"/>
    <trip id="veh232" depart="6122.0" from="26037138#0" to="741999611"/>
    <trip id="veh233" depart="13081.1" from="221329638" to="25438911#0"/>
    <trip id="veh234" depart="2389.3" from="448832519#0" to="-235668608"/>
    <trip id="veh235" depart="8196.6" from="141069819" to="309731883#1"/>
    <trip id="veh236" depart="9917.0" from="1315397863" to="-297024535#1"/>
    <trip id="veh237" depart="7206.8" from="277117079" to="763418969#0"/>
    <trip id="veh238" depart="574.0" from="217197485#1" to="-24392758#1"/>
    <trip id="veh239" depart="3605.3" from="21046520#1" to="1464098894"/>
    <trip id="veh240" depart="12037.8" from="-25438845#2" to="82749515"/>
    <trip id="veh241" depart="14393.8" from="234876442#0" to="80576567#1"/>
    <trip id="veh242" depart="579.3" from="26380692" to="1201758097"/>
    <trip id="veh243" depart="9381.7" from="329667470" to="216789266"/>
    <trip id="veh244" depart="8428.7" from="686500129#1" to="-664374772#4"/>
    <trip id="veh245" depart="1313.9" from="25117109#0" to="217197484"/>
    <trip id="veh246" depart="9649.9" from="157868808" to="153148684#0"/>
    <trip id="veh247" depart="9988.9" from="535340998" to="150023221#0"/>
    <trip id="veh248" depart="11715.4" from="1313997115#1" to="78196859#1"/>
    <trip id="veh249" depart="4529.0" from="221329659" to="216757315#0"/>
    <trip id="veh250" depart="5820.1" from="1465797167" to="831244566#1"/>
    <trip id="veh251" depart="9470.3" from="217472549" to="91212041"/>
    <trip id="veh252" depart="2701.2" from="221329634" to="199537368"/>
    <trip id="veh253" depart="9005.9" from="180640933#1" to="329667470"/>
    <trip id="veh254" depart="7908.8" from="333129876" to="-832568459#1"/>
    <trip id="veh255" depart="10054.8" from="720665841#0" to="216565683#1"/>
    <trip id="veh256" depart="8767.8" from="-29325780#0" to="840207983#1"/>
    <trip id="veh257" depart="7932.1" from="107356854#0" to="-463832904#1"/>
    <trip id="veh258" depart="14288.5" from="221329674" to="-25527055"/>
    <trip id="veh259" depart="1691.5" from="686500127#0" to="216789259#0"/>
    <trip id="veh260" depart="10319.1" from="456689171" to="217197491#0"/>
    <trip id="veh261" depart="12020.0" from="217298914#0" to="1217077880#0"/>
    <trip id="veh262" depart="7938.2" from="85866465" to="1096657788"/>
    <trip id="veh263" depart="7318.7" from="196713930#0" to="713092110#1"/>
    <trip id="veh264" depart="3978.0" from="552851766" to="545673437"/>
    <trip id="veh265" depart="13453.2" from="37828459#0" to="199537369"/>
    <trip id="veh266" depart="4072.9" from="217298910" to="431516755#1"/>
    <trip id="veh267" depart="14384.2" from="1368284325" to="24164608#7"/>
    <trip id="veh268" depart="7755.6" from="217197479#0" to="-401458850#5"/>
    <trip id="veh269" depart="7825.4" from="155221402#0" to="221329674"/>
    <trip id="veh270" depart="2716.6" from="216757315#1" to="146196599#1"/>
    <trip id="veh271" depart="3363.3" from="277117073#0" to="23257792"/>
    <trip id="veh272" depart="10723.8" from="359671126#2" to="-180892012"/>
    <trip id="veh273" depart="5559.5" from="277117086" to="430874628#0"/>
    <trip id="veh274" depart="14123.8" from="26116503#0" to="431516755#1"/>
    <trip id="veh275" depart="7233.0" from="217197486#0" to="-153672339#1"/>
    <trip id="veh276" depart="12588.3" from="24244306" to="547256631#1"/>
    <trip id="veh277" depart="6579.8" from="216598704" to="218323941"/>
    <trip id="veh278" depart="9428.9" from="28289243" to="19844875#2"/>
    <trip id="veh279" depart="13956.5" from="-431445483" to="216789265"/>
    <trip id="veh280" depart="9357.6" from="153178166" to="276667121#0"/>
    <trip id="veh281" depart="12374.5" from="50341242#2" to="508909311#0"/>
    <trip id="veh282" depart="10349.5" from="195031599#0" to="1431090265"/>
    <trip id="veh283" depart="516.9" from="333129875" to="552230300#1"/>
    <trip id="veh284" depart="13261.4" from="-233567567" to="25071851"/>
    <trip id="veh285" depart="6249.2" from="945765464" to="307924268"/>
    <trip id="veh286" depart="12565.1" from="-25711857" to="25117108"/>
    <trip id="veh287" depart="13009.3" from="216688105#0" to="277117057"/>
    <trip id="veh288" depart="4224.5" from="-189431079#2" to="37830025#0"/>
    <trip id="veh289" depart="7648.8" from="189125271#1" to="-37697990#0"/>
    <trip id="veh290" depart="2447.8" from="229226379#0" to="37828611"/>
    <trip id="veh291" depart="8923.8" from="-24244307#3" to="549146500#1"/>
    <trip id="veh292" depart="2060.9" from="1074805418" to="686500127#0"/>
    <trip id="veh293" depart="3676.7" from="216758819" to="114324803#1"/>
    <trip id="veh294" depart="12977.4" from="-1152890651" to="39230955#0"/>
    <trip id="veh295" depart="6360.9" from="264018792" to="-456684425#1"/>
    <trip id="veh296" depart="9200.7" from="155221411#0" to="24200742"/>
    <trip id="veh297" depart="12172.4" from="206880022" to="112320161#0"/>
    <trip id="veh298" depart="6958.2" from="-828139880#1" to="196713930#1"/>
    <trip id="veh299" depart="8277.3" from="1071057868#1" to="23257812"/>
    <trip id="veh300" depart="14082.4" from="93167166#1" to="1337242031"/>
    <trip id="veh301" depart="8149.4" from="25757043#0" to="1218233805"/>
    <trip id="veh302" depart="706.2" from="264018806" to="30596843"/>
    <trip id="veh303" depart="13019.8" from="24787452" to="217197490"/>
    <trip id="veh304" depart="8741.7" from="129970780" to="37832001#0"/>
    <trip id="veh305" depart="8940.8" from="166714481" to="25117111#1"/>
    <trip id="veh306" depart="9492.2" from="264018792" to="28289235"/>
    <trip id="veh307" depart="13009.0" from="47197017" to="25071851"/>
    <trip id="veh308" depart="6347.9" from="25437905" to="1415133938"/>
    <trip id="veh309" depart="1297.9" from="239488608" to="29318662#0"/>
    <trip id="veh310" depart="2529.2" from="1336421108#4" to="308476200#3"/>
    <trip id="veh311" depart="13989.4" from="-310894354" to="219432045#4"/>
    <trip id="veh312" depart="11958.8" from="218323960#1" to="686500127#1"/>
    <trip id="veh313" depart="6938.6" from="114324807" to="443761961"/>
    <trip id="veh314" depart="4877.5" from="40716733" to="30788110#1"/>
    <trip id="veh315" depart="2026.9" from="-277424362#1" to="82751707#1"/>
    <trip id="veh316" depart="10428.7" from="828936895#5" to="535724006#0"/>
    <trip id="veh317" depart="11586.1" from="85866465" to="829330981"/>
    <trip id="veh318" depart="200.4" from="184311201#0" to="37828459#1"/>
    <trip id="veh319" depart="9688.7" from="21896370#0" to="216757315#0"/>
    <trip id="veh320" depart="11842.8" from="26380693#0" to="24157631"/>
    <trip id="veh321" depart="3367.0" from="759900795" to="-26380680#10"/>
    <trip id="veh322" depart="8084.3" from="-134668263#1" to="552854768#0"/>
    <trip id="veh323" depart="910.3" from="686500128#2" to="1015107452"/>
    <trip id="veh324" depart="4351.5" from="442202335#0" to="669428181"/>
    <trip id="veh325" depart="13626.2" from="19844875#0" to="-345738495#2"/>
    <trip id="veh326" depart="1399.6" from="1390308501" to="217197485#0"/>
    <trip id="veh327" depart="6532.5" from="577519877" to="-324116811"/>
    <trip id="veh328" depart="13622.0" from="26343726" to="30409535#0"/>
    <trip id="veh329" depart="2225.1" from="199688064#0" to="30326770#0"/>
    <trip id="veh330" depart="7046.6" from="199537369" to="-25757036#1"/>
    <trip id="veh331" depart="471.1" from="19844875#0" to="80576567#1"/>
    <trip id="veh332" depart="13688.0" from="187685308" to="216640461#1"/>
    <trip id="veh333" depart="9873.8" from="533275337#0" to="-25757043#1"/>
    <trip id="veh334" depart="5164.9" from="221329638" to="85866463"/>
    <trip id="veh335" depart="1759.1" from="19803688" to="-720475825#1"/>
    <trip id="veh336" depart="9543.9" from="48705329#0" to="216757315#0"/>
    <trip id="veh337" depart="307.5" from="25131942" to="24430648#0"/>
    <trip id="veh338" depart="1813.3" from="376064318" to="1095638042#1"/>
    <trip id="veh339" depart="11018.3" from="229225622" to="-233567568#2"/>
    <trip id="veh340" depart="12523.6" from="-840207983#1" to="-940790208#1"/>
    <trip id="veh341" depart="12967.6" from="149948150#1" to="-39230955#6"/>
    <trip id="veh342" depart="2083.5" from="-103310908" to="535340998"/>
    <trip id="veh343" depart="2512.8" from="-30788110#3" to="112320161#0"/>
    <trip id="veh344" depart="214.0" from="26012668#0" to="-1376134753#1"/>
    <trip id="veh345" depart="4662.3" from="37828459#0" to="1073354274#1"/>
    <trip id="veh346" depart="10680.7" from="-564607399" to="-19801697"/>
    <trip id="veh347" depart="6857.9" from="218323941" to="307157806#2"/>
    <trip id="veh348" depart="1570.4" from="365016937" to="217472547"/>
    <trip id="veh349" depart="624.5" from="217284501#0" to="78196859#1"/>
    <trip id="veh350" depart="7508.9" from="371130477#2" to="546411763#0"/>
    <trip id="veh351" depart="875.9" from="216757319" to="82803928"/>
    <trip id="veh352" depart="9879.8" from="216988891" to="19843349"/>
    <trip id="veh353" depart="1058.3" from="217197479#0" to="675122632#0"/>
    <trip id="veh354" depart="945.8" from="-24525409" to="24787460#1"/>
    <trip id="veh355" depart="7896.3" from="1221362740" to="25116634"/>
    <trip id="veh356" depart="7640.0" from="1473434713#1" to="93624623"/>
    <trip id="veh357" depart="1428.2" from="216757313" to="24787450"/>
    <trip id="veh358" depart="9373.2" from="277117085#0" to="509547120#0"/>
    <trip id="veh359" depart="3096.3" from="357500280#1" to="28289235"/>
    <trip id="veh360" depart="4880.6" from="216696189" to="103310901"/>
    <trip id="veh361" depart="1369.2" from="216757313" to="199537369"/>
    <trip id="veh362" depart="5389.9" from="206880045#1" to="26256115"/>
    <trip id="veh363" depart="966.7" from="-426378524#11" to="715077941#0"/>
    <trip id="veh364" depart="1390.5" from="456181458" to="-25527055"/>
    <trip id="veh365" depart="8011.7" from="299681481" to="431445477#0"/>
    <trip id="veh366" depart="4746.9" from="24164605#0" to="229225622"/>
    <trip id="veh367" depart="9580.9" from="-29349736#4" to="166869096#0"/>
    <trip id="veh368" depart="10383.3" from="315156044" to="546411763#1"/>
    <trip id="veh369" depart="5063.7" from="830758487#0" to="24731528#3"/>
    <trip id="veh370" depart="9457.0" from="237414655#0" to="-919389926#1"/>
    <trip id="veh371" depart="12173.4" from="1022234063#3" to="-26380680#10"/>
    <trip id="veh372" depart="8267.0" from="187102376#0" to="339315233"/>
    <trip id="veh373" depart="14033.5" from="40776779" to="48429650#3"/>
    <trip id="veh374" depart="9254.9" from="431445483" to="24822051#0"/>
    <trip id="veh375" depart="11944.2" from="-1379270344" to="732685220"/>
    <trip id="veh376" depart="10118.9" from="118304896" to="-661259154"/>
    <trip id="veh377" depart="87.9" from="1415133938" to="153263840#0"/>
    <trip id="veh378" depart="5771.3" from="547918806" to="229227339"/>
    <trip id="veh379" depart="441.5" from="-360584292" to="25116634"/>
    <trip id="veh380" depart="6045.6" from="30787931#0" to="-93227334"/>
    <trip id="veh381" depart="10391.0" from="153672336#0" to="187685304#0"/>
    <trip id="veh382" depart="1223.4" from="359671129#0" to="229227340"/>
    <trip id="veh383" depart="8896.9" from="-19803701" to="-453923703#2"/>
    <trip id="veh384" depart="9531.9" from="264018788" to="1214642915"/>
    <trip id="veh385" depart="3933.6" from="217162193" to="216608972#2"/>
    <trip id="veh386" depart="6190.8" from="31875857#0" to="-277156291#0"/>
    <trip id="veh387" depart="7007.5" from="128212106" to="264018793"/>
    <trip id="veh388" depart="5691.8" from="26302140#3" to="-189125272#2"/>
    <trip id="veh389" depart="4340.4" from="24559263" to="-1111164447#0"/>
    <trip id="veh390" depart="3679.5" from="-903049596#3" to="-330943888"/>
    <trip id="veh391" depart="10757.0" from="149948147#1" to="-1111164447#1"/>
    <trip id="veh392" depart="10132.9" from="-584955630" to="195031599#0"/>
    <trip id="veh393" depart="11609.3" from="217197494#0" to="458909126#0"/>
    <trip id="veh394" depart="609.2" from="-237414655#8" to="538978472"/>
    <trip id="veh395" depart="12414.4" from="-128280519#8" to="693874505"/>
    <trip id="veh396" depart="10216.8" from="235668608" to="233567569#0"/>
    <trip id="veh397" depart="300.3" from="199688061" to="-277424362#1"/>
    <trip id="veh398" depart="8901.0" from="1469993636" to="383197545"/>
    <trip id="veh399" depart="1269.1" from="456689171" to="692469258"/>
    <trip id="veh400" depart="8479.7" from="48429650#1" to="1091690320#0"/>
    <trip id="veh401" depart="4468.0" from="217499932#0" to="19803664"/>
    <trip id="veh402" depart="2421.1" from="153263840#0" to="153148684#0"/>
    <trip id="veh403" depart="7343.3" from="217300261" to="-277424358"/>