<?xml version="1.0" encoding="UTF-8"?>

<!-- generated on 2026-04-23T09:25:06.133869+01:00 by Eclipse SUMO duarouter 1.26.0
<duarouterConfiguration xmlns:xsi="http://www.w3.org/2001/XMLSchema-instance" xsi:noNamespaceSchemaLocation="http://sumo.dlr.de/xsd/duarouterConfiguration.xsd">

    <input>
        <net-file value="net_xml/big_fragment_krakow.net.xml"/>
        <route-files value="net_xml/big_fragment_krakow.trips.xml"/>
    </input>

    <output>
        <output-file value="net_xml/big_fragment_krakow.rou.xml"/>
    </output>

    <report>
        <no-warnings value="true"/>
        <ignore-errors value="true"/>
    </report>

</duarouterConfiguration>
-->

<routes xmlns:xsi="http://www.w3.org/2001/XMLSchema-instance" xsi:noNamespaceSchemaLocation="http://sumo.dlr.de/xsd/routes_file.xsd">
    <vehicle id="veh0" depart="3960.40">
        <route edges="25122978 431445479#0 431445479#2 25117111#1 37832001#0 37832001#1 1221362740 277117067 299714315#1 372636138 743661052 1121494298 19844375 37829704 26465744 776492223 776492225 164634793 -1343959018#1 -1343959021"/>
    </vehicle>
    <vehicle id="veh2" depart="6075.70">
        <route edges="591606416 -1055769951#1 -118204356#2 -940791131#4 -975268335#2 -1018817586#2 -838332443 -838332442#3 -828936895#3 -118204357#1 -835098092 -835098091#2 835098090#0 -828821905 -828822114 -247686253 -547918807 -21072913 -564151692 -637909741 -29384979#1 448832521 80576569#1 217209133 277117070#0 546411763#0 546411763#1 19843701#0 19843701#4 80526319 1073354276 75391394#0 448832519#0 448832519#1 552854766 552854767 430292700 1204250818 25069629 25069630 535724006#0 217178036 114324807 24787450 242707359 217162187 242917513#0 242917513#1 114324811 37828490 368152909#1 187685308 149948147#1 216789259#0 216789259#2 168660721 216789263#0 187685310#0 187685310#1 216758819 216757313 199688061 216757310 129970780 216757331 25949904 557654286#2 557654286#3 216946574#1 216946267#1 547256615#1 1091690320#0 547256631#0 547256631#1 216640461#1 216640453 538322447 216565687 1462900756 538322446#0 538322446#1 543762582 -1060253199 -25031295#1 -25031295#0 -233567567 -233567568#2 -25031296"/>
    </vehicle>
    <vehicle id="veh5" depart="8485.40">
        <route edges="221329643#0 221329643#2 918558383 48429651#1 48429651#2 497905725 497905724 229227340 229227341 28814940#1 28814940#2 199688062 315156047#1 1385648669 315156046 315156049 112320159 359671127 1424064902#2 145988881#0 336909779 584955628#0 359671124#0 359671124#1 359671124#2 24857833#0 24857833#1 1098623338 1098623337 216565684#0 1098623336 1098623335 216565685 25031677#1 543762582 -1060253199 -25031295#1 -25031295#0 -233567567 -233567568#2 -25031296 -26301634#3 -26301634#0 -37833000 25029837#0 25029837#1 25029837#2 -682601485#0 -25029839#1 -25029839#0 -25517356 -48373494 -26465746#1 26465743 264018797 264018796 264018794 264018788 264018791 37829703 5095973#1 37829708 19842465 264018795 -372636138 -372635877 101322361#0"/>
    </vehicle>
    <vehicle id="veh1" depart="9744.50">
        <route edges="1022234061 1022234063#0 1022234063#2 1022234063#3 65372191 237025647#0 237025647#1 237025647#2 237025647#3 1022234060 216692172 216692362 216692363#0 1422313905 216789262#0 216789262#1 168660721 216789260#0 216693857 453923730 1464098894 116688055#0 116688055#2 216893222#0 147463160#0 24822858 1385356090 1337242031 216893225 1067620219 216893652 216893651#0 818998963 216893653 1096657788 216894223#0 216894224 498651800 860063721 216940973#2 216940966#1 860063720 331054037 19845066 108352259#0 108352259#1 150023221#0 150023221#1 19844651#0 19844651#1 217284503#0 217284504 153263839 217284505#0 217284505#1 217284502 166843151#0 166843151#2 377115649 171231020 217298910 1015107452 1369948059 1015107453 217298909#0 217298913#0 1319978369#1 1319978370 25712568#0 25712568#2 297804536#0 297804536#1 297804536#2 297804536#4 297804536#6"/>
    </vehicle>
    <vehicle id="veh8" depart="1335.50">
        <route edges="82206924#0 82206924#1 1415689047 217300261 29285995#0 29285995#1 29285995#2 82206922 264018809 309731883#1 357500280#1 357500280#2 264018806 264018803 264018801 264018811 309731882 217499935#0 217499935#2 150023225#0 150023225#1 108352260 82749516 331054039 85220272 1415138984 808761591 860061865 216940969#0 82751707#1 860061864#0 860061864#1 1415133938 1415133639 216940971#0 24821782 233620426#0 233620426#3 233620425#0 233620425#3 233620425#7 1113718372 216640461#1 216640455 103310908 19803788 411704290 187148365#0 187148365#2 48373498 -453923703#2 -453923703#1 678106462 153173542#0"/>
    </vehicle>
    <vehicle id="veh7" depart="2238.90">
        <route edges="277117073#0 128212107#1 277117061 277117057 1030117443 686500129#1 549146500#1 277117080 1465797167 200654866#1 118304896 431516755#1 431445480#0 431445480#3 431445479#0 431445479#2 25117111#1 37832001#0 37832001#1 1221362740 277117067 299714315#1 372636138 743661052 1121494298 24157876 1498037092 264018789 1088129792#0 264018800#0 264018800#1 264018800#2 150023220 199084017#1 150023225#0 150023225#1 153263840#0 153263840#1"/>
    </vehicle>
    <vehicle id="veh10" depart="7721.70">
        <route edges="407697740 657424332#0 -1495403715 1495403708 -657424332#3 -657424332#2 -657424332#1 -657424332#0 -407697740 1232185700#1 25023871 218323941 723009832#1 713711824 218323999 552853688 723009817#0 723009817#1 552853687#2 723009812 25438331#0 25438331#2 25438331#5 -876585150#2 -876585150#1 -876585150#0 -25438331#3 -25438331#1 -1371924396 -726004486 -552853687#1 -723009817#0 -552853688 -218323999 -713711824 -723009832#1 206880022 552853691#1 218323976 339315233 339315234#0 217197479#0 24787439#0 24787439#1 1214642918 153148686#0 850053172 217197491#0 153148689 114324807 24787450 242707359 217162187 242917513#0 242917513#1 114324811 37828490 368152909#1 187685308 149948147#1 216789259#0 216789259#2 168660721 216789263#0 187685310#0 187685310#1 216758819 216757313 199688061 216757310 129970780 216757331 25949904 557654286#2 557654286#3 216946574#1 216946267#1 547256615#1 1091690320#0 547256631#0 547256631#1 216640461#1 216640453 538322447 216565687 1462900756 538322446#0 538322446#1 543762592 205108002#1 1098623342 25031676#0 216565686#0 216565686#1 216565686#2 146186510 992671411 29270845"/>
    </vehicle>
    <vehicle id="veh11" depart="7949.40">
        <route edges="840207983#1 155221402#0 564607400 564607399 906770625 155221411#0 114324803#1 114324803#2 1465797171 686500128#2 25117109#0 25117109#1 693874505 686500127#0 686500127#1 1071057868#1 128212105#1 1073354274#1 187102377#0 187102376#0 80576569#1 217209133 277117070#0 546411763#0 546411763#1 80526321 217472547 195031597"/>
    </vehicle>
    <vehicle id="veh13" depart="659.90">
        <route edges="237025647#2 237025647#3 1022234060 216692172 216692362 216692363#0 1422313905 216789262#0 216789262#1 168660721 216789260#0 216693857 453923730 1464098894 116688055#0 116688055#2 216893222#0 147463160#0 24822858 1385356090 1337242031 216893225 1067620219 216893652 216893651#0 818998963 216893653 1096657788 216894223#0 216894224 498651800 860063721 216940973#2 216940966#1 860063720 331054037 19845066 108352259#0 108352259#1 19844875#0 19844875#1 19844875#2 37829708 19842465 264018795 -372636138 -372635877 126106953 277117090 277117079 277117085#0 277117085#1 277117085#2"/>
    </vehicle>
    <vehicle id="veh14" depart="1149.00">
        <route edges="103307171 -708056660#0 -456151813#4 -456151813#2 1415689047 217300261 29285995#0 29285995#1 29285995#2 82206922 264018809 309731883#1 357500280#1 357500280#2 264018806 264018803 264018801 264018811 309731882 217499935#0 217499935#2 150023225#0 150023225#1 153263840#0 153263840#1 19844875#0 19844875#1 19844875#2 37829708 19842465 264018795 -372636138 -372635877 126106953 277117090 277117079 277117085#0 277117085#1 277117085#2 431445477#0 431445477#2 25117112#1 277117087 277117086 692468163#0 299681481 277117089 277117078#1 431445484 37830025#0 114324803#1 114324803#2 1465797171 686500128#2 25117109#0 25117109#1 693874505 686500127#0 686500127#1 1071057868#1 128212105#1 1073354274#1 187102377#0 187102376#0 80576569#1 217209133 277117070#0 546411763#0 546411763#1 80526321 217472547 195031597 153148685 368025821 153148684#0 217197480 552854764 206880020 206880021 25023871 218323941 723009832#1 713711824 218323999 552853688 723009817#0 723009817#1 552853687#2 723009812 25438331#0 25438331#2 25438331#5 25438331#6 1315948511"/>
    </vehicle>
    <vehicle id="veh16" depart="5330.60">
        <route edges="25117109#1 693874505 25116633 428067500 24525611 181350900#0"/>
    </vehicle>
    <vehicle id="veh12" depart="12408.60">
        <route edges="455094759#0 455094759#1 455094759#2 107063848 137885140 93624628 1426658498 1083018577 742001964#0 742001964#1 742001964#2 145988881#0 336909779 584955628#0 359671124#0 359671124#1 359671124#2 24857867"/>
    </vehicle>
    <vehicle id="veh18" depart="2464.40">
        <route edges="25439144#3 25439144#6 -237026821 -24805542#0 -366458331#0 -715092610 -276667121#0 -237025869 -37697990#2 -37697990#0 19847015#0 26302146 242707358 368325413 24787440 217162186 195031599#0 217178032 24787452 75391393 153178166 24787453 217197494#0 217197494#1 28289243 153148685 24787460#1"/>
    </vehicle>
    <vehicle id="veh20" depart="8020.10">
        <route edges="918558383 48429651#1 48429651#2 497905725 497905724 229227340 229227341 28814940#1 28814940#2 199688062 315156047#1 1385648669 315156046 315156049 112320159 359671127 1424064902#2 145988881#0 336909779 584955628#0 359671124#0 359671124#1 359671124#2 24857833#0 24857833#1 1098623338 1098623337 216565684#0 1098623336 1098623335 216565685 25031677#1 543762582 -1060253199 -25031295#1 -25031295#0 -233567567 -233567568#2 -25031296 -26301634#3 -26301634#0 -37833000 25029837#0 25029837#1 25029837#2 -682601485#0 -25029839#1 -25029839#0 -25517356 -48373494 -26465746#1 26465743 264018797 264018796 264018794 264018788 264018791 37829703 5095973#1 37829708 19842465 264018795 -372636138 -372635877 126106953 277117090 277117079 277117085#0 277117085#1 277117085#2 431445477#0 431445477#2 25117112#1 277117087 25122978"/>
    </vehicle>
    <vehicle id="veh21" depart="11174.40">
        <route edges="264018801 264018811 309731882 217499935#0 217499935#2 150023225#0 150023225#1 153263840#0 153263840#1 19844875#0 19844875#1 19844875#2 37829708 19842465 264018795 -372636138 -372635877 101322354#0 101322354#1 1392975571#0 -48705330#1 -600704985#4 -600704985#0 -216993331#2 -216993331#1 -47944091#2 -216993328 845101220 1345200036 47944096 47944097"/>
    </vehicle>
    <vehicle id="veh17" depart="13487.80">
        <route edges="-878860212#0 -837325143 -831244563#1 -19801540#0 -19801528 591606416 -1055769951#1 -118204356#2 -940791131#4 -1448274562#1 -1448274562#0 -1336421108#4 -1336421108#3 -1336421108#1 689359241#0 689359241#2 689359241#3 689359241#4 689359241#7 689359241#11 -1379270344 -340398943#0 -729745563 -189125271#1 -189125271#0 -189125273#1 -189125272#2 -720444271#2 -627370853#4 -627370853#0 40716733 60650398#2 549146500#1 277117080 1465797167 200654866#1 118304896"/>
    </vehicle>
    <vehicle id="veh25" depart="6607.50">
        <route edges="19803664 19803798 47197015#1 453923703#2 -48373498 -632439499#2 -187148365#1 103310902 103310906 216640450 -1113718372 -233620425#9 -233620425#6 -233620425#1 -233620426#8 299858699#0 183426100#0 188080043 498651800 860063721 216940973#2 216940966#1 860063720 331054037 19845066 108352259#0 108352259#1 19844875#0 19844875#1 19844875#2 37829708 19842465 264018795 -372636138 -372635877 126106953 277117090 277117079 277117085#0 277117085#1 277117085#2 431445477#0 431445477#2 25117112#1 277117087 277117086 692468163#0 299681481 277117089 277117078#1 431445484 37830025#0 114324803#1 114324803#2 1465797171 686500128#2"/>
    </vehicle>
    <vehicle id="veh24" depart="9438.30">
        <route edges="552844877 535340998 218323950#0 218323950#2 206880022 552853691#1 218323976 339315233 339315234#0 217197479#0 24787439#0 24787439#1 1214642918 153148686#0 850053172 217197491#0 153148689 114324807 24787450 242707359 217162187 242917513#0 242917513#1 114324811 37828490 368152909#1 19803399 368152910#1 82749515 24822051#0 24822051#1 1425309294#0"/>
    </vehicle>
    <vehicle id="veh27" depart="12928.60">
        <route edges="117386953#0 80576567#1 128209964#0 128209964#1 887288446#0 887288445#1 277117073#0 128212107#1 277117061 277117057 1030117443 686500129#1 549146500#1 277117080 24157631"/>
    </vehicle>
    <vehicle id="veh23" depart="13577.90">
        <route edges="1183969861 1095638042#1 145035093#1 1243844009 1366683522 -661259154 661259155 661261067#0 913954534 115077666 913954644 1243731581 -217474199#6 -217474199#5 -217474200 -564151692 -637909741 -29384979#1 448832521 80576569#1 217209133 277117070#0 546411763#0 546411763#1 19843701#0 19843701#4 80526319 1073354276 75391394#0 448832519#0 448832519#1 552854766 552854767 430292700 1204250818 25069629 25069630 535724006#0 217178036 114324807 -47197017 -47197018#1 -75394044#4 -899128008#3"/>
    </vehicle>
    <vehicle id="veh7018" depart="1.20">
        <route edges="216692175#0 216692175#2 216692174#1 216692173#0 216692173#2 216692173#4 237025647#0 237025647#1 237025647#2 237025647#3 1022234060 216692172 216692362 216692363#0 1422313905 216789262#0 216789262#1 168660721 216789263#0 187685310#0 187685310#1 216758819 216757313 199688061 216757310 129970780 162931491 1365590117 221329665 1074802926 221329659"/>
    </vehicle>
    <vehicle id="veh1742" depart="2.70">
        <route edges="623047713 584955629#0 584955629#1 229226379#0 1390308501 199537370#0 28815854#0 146196599#1 199688062 315156047#1 1385648669 315156046 315156049 112320159 359671127 1424064902#2 145988881#0 336909779 584955628#0 359671124#0 359671124#1 359671124#2 24857833#0 24857833#1 1098623338 1098623337 216565684#0 1098623336 1098623335 216565685 25031677#1 543762582 -1060253199 -25031295#1 -25031295#0 -233567567 -233567568#2 -25031296 -26301634#3 -26301634#0 -37833000 25029837#0 25029837#1 25029837#2 -682601485#0 -25029839#1 -25029839#0 -25517356 -48373494 -26465746#1 26465743 264018797 264018796 264018794 264018788 264018791 37829703 5095973#1 37829708 19842465 264018795 -372636138 -372635877 126106953 277117090 277117079 277117085#0 277117085#1 277117085#2 431445477#0 431445477#2 65372863 25117111#1"/>
    </vehicle>
    <vehicle id="veh3965" depart="5.10">
        <route edges="-330623976#2 216993331#2 600704985#0 600704985#1 48705331 101322356 216988890#0 216988890#2 101322361#0 101322361#1 216988891 907862379 204347060 1419337862#0 1419337861#0 298560696 298560684 830721205#0 295356762#0 331054036#0 331054036#1 23700119 256367295#0 256367295#1 -37833188 -147579538#2 -147579536 -1041703629 -147579539 -147579540 -21094573#1 263325315 943235558 943235559 1391008695#0 1391008695#1 1146550320 -234876442#1 -829894545#5 -829894545#0 24787452 75391393"/>
    </vehicle>
    <vehicle id="veh3814" depart="7.10">
        <route edges="24822053#0 24822053#7 1326240279#0 1326240279#3 1326240279#4 763274683#0 763274683#2 217162191 217162190 217162192#0 217162192#1 217162193 533275337#0 533275337#1 37828459#0 37828459#1 114324811 37828490 368152909#1 187685308 149948147#1 216789259#0 216789259#2 168660721 216789263#0 187685310#0 187685310#1 216758819 216757313 199688061 216757310 216757317"/>
    </vehicle>
    <vehicle id="veh4602" depart="8.20">
        <route edges="114324803#2 1465797171 686500128#2 25117109#0 25117109#1 693874505 25116633 1030117443 686500129#1"/>
    </vehicle>
    <vehicle id="veh4563" depart="8.30">
        <route edges="-231720766 24202327#0 828936895#5 118204358#0 118204354#0 1431004292 940791131#0 118204356#0 1055769951#0 591606409#0 831244565#1 1123279174 1045103441#0 24559264 -940790208#1 -653917516#12 -653917516#6 -653917516#5 -829391500#8 -829391500#4 -829391500#2 -277424371#1 -26372275#3 -475556415#7 -475556415#5 475556416#0 -694435536#1 -694435536#0 192081930"/>
    </vehicle>
    <vehicle id="veh847" depart="9.70">
        <route edges="534857239#0 181350900#0 93144335#0 93144335#2 128212107#1 277117061 277117057 1030117443 686500129#1 549146500#1 277117080 1465797167 200654866#1 118304896 431516755#1 431445480#0 431445480#3 431445479#0 431445479#2 25117111#1 -23257792 242481879#0 506268020 48705326#0 48705326#2 1298880009 25530992#0 44422893 44422899#0 44422899#1 131069317#0 1458093223 47944096 -24731039 -24731038 -216993326 -216993330#0 -341865897#1 -216999581 -232715275 -341865898 -1343006588 -25152848 4757981#0 1380175078 4758410#0 4758410#1 216608972#0 216608972#2 21044463#2 41193458#0 41193458#2 -288995406 24731247#3 1323699270 -128280519#4 -128280519#0 7953785 216608613#0 216608613#2"/>
    </vehicle>
    <vehicle id="veh974" depart="9.80">
        <route edges="-994906902#1 661259155 661261067#0 913954534 115077666 913954644 1243731581 -217474199#6 -217474199#5 -217474200 -564151692 -637909741 -29384979#1 448832521 80576569#1 217209133 277117070#0 546411763#0 546411763#1 80526321 217472547 195031597 153148685 368025821 153148684#0 217197480 552854764 206880020 206880021 25023871 218323941"/>
    </vehicle>
    <vehicle id="veh6101" depart="13.80">
        <route edges="-31766445#5 -832279012#6 -825434646#0 -828600598#2 -475556401#2 -689359241#8 -689359241#6 -689359241#3 -689359241#2 -689359241#1 1336421108#0 1336421108#2 1336421108#4 1448274562#0 1448274562#1 940791131#0 118204356#0 1055769951#0 591606409#0 19801528 19801536 831244563#1 837325143 878860212#0 878860212#1 19801632#0 878860210 101326682#0 463832904#0 692725884 881242191 463832905"/>
    </vehicle>
    <vehicle id="veh996" depart="18.40">
        <route edges="114324807 -47197017 -47197018#1 -834278406#3 757727251 714785901#1 714785901#2 714785900 759771315#2 28289232 217197493 153178166 24787453 217197494#0 217197494#1 28289243 153148685 24787460#1 78196861 153178162 552854765#1 19843572 217472549 195819853 80526315 217197484 217209134#0 376064318 945765464 186952087#1 117386953#0 80576567#1 128209964#0 128209964#1 887288446#0 887288445#1 277117073#0 473832224#0 473832224#1 -181350900#1 29326874 181350898 677516405 119918895#0 852688550#1 852687657 475556394#0 828600681#0 828600649 828600620#0 475556401#1 828600598#0 825434646#0 825434646#1 22442417 297145076#0 475556403#1 277424365#1 -277424371#1 -26372275#3"/>
    </vehicle>
    <vehicle id="veh6062" depart="21.70">
        <route edges="669428181 78196861 153178162 552854765#1 19843572 217472549 195819853 80526315 217197484 217209134#0 376064318 945765464 186952087#1 117386953#0 80576567#1 128209964#0 128209964#1 887288446#0 887288445#1 277117073#0 128212107#1 277117061 277117057 1030117443 686500129#1 549146500#1 277117080 1465797167 200654866#1 118304896 431516755#1 431445480#0 431445480#3 431445479#0 431445479#2 25117111#1 37832001#0 37832001#1 1221362740 277117067 299714315#1"/>
    </vehicle>
    <vehicle id="veh2660" depart="22.70">
        <route edges="906770625 155221411#0 200654866#1 118304896 431516755#1 431445480#0"/>
    </vehicle>
    <vehicle id="veh1669" depart="22.80">
        <route edges="277117090 277117079 25131942 1221362740 277117067 299714315#1 372636138 743661052 1121494298 24157876 1498037092 264018789 1088129792#0 264018800#0 264018800#1 264018800#2 150023220 199084017#1 150023225#0 150023225#1 108352260 82749516 331054039 85220272 1415138984 808761591 860061865 216940969#0 914199224#1 949130867#0 1020841819 294883300#0 294883300#2 294883300#4 294883300#5 945787333 846486041 846486040#0 247802004 25029838#1 371130477#0 371130477#2 37828611 37833000 26301634#0 26301634#2 25031296 233567568#0 233567567 827630428 25031295#1 25031295#2 1060253200#0 1060253200#1 543762592 205108002#1 1098623342 25031676#0 216565686#0 216565686#1 216565686#2 146186510 -1461004499 216565683#0 216565683#1 107063848 137885140 215030714#0 315156048 37830605 315156045 85866465"/>
    </vehicle>
    <vehicle id="veh122" depart="24.40">
        <route edges="114324803#2 1465797171 686500128#2 28768943 549146500#1 277117080 1465797167 200654866#1 118304896 431516755#1 431445480#0 431445480#3 431445479#0 431445479#2 25117111#1 37832001#0 37832001#1 1221362740 277117067 101322354#0 101322354#1 1392975571#0 101322356 216988890#0 216988890#2 126106953 277117090"/>
    </vehicle>
    <vehicle id="veh6898" depart="28.70">
        <route edges="431445484 21931182#0 200654866#1 118304896 431516755#1 431445480#0 431445480#3 431445479#0 431445479#2 25117111#1 37832001#0 37832001#1 1221362740 277117067 299714315#1 372636138 743661052 1121494298 24157876 1498037092 264018789 1088129792#0 264018800#0 264018800#1 264018800#2 150023220 199084017#1 150023225#0 150023225#1 108352260 82749516 331054039 85220272 1415138984 808761591 860061865 216940969#0 914199224#1 949130867#0 1020841819 294883300#0 294883300#2 294883300#4 294883300#5 945787333 846486041 846486040#0 247802004 25029838#1 371130477#0 371130477#2 37828611 37833000 26301634#0 26301634#2 25031296 233567568#0 233567567 827630428 25031295#1 25031295#2 1060253200#0 1060253200#1 543762592 205108002#1 1098623342 25031676#0 216565686#0 216565686#1"/>
    </vehicle>
    <vehicle id="veh4633" depart="30.10">
        <route edges="25439144#0 25439144#3 30815466 30815467 183799258 -25439144#2 149948150#0 149948150#1 149948150#2 -291758388 -221388958 -25438845#2 25438911#0 -24787975#0 29318662#0 218323982#0 339315233 339315234#0 217197479#0 669428181 78196861 153178162 552854765#1 19843572 217472549 195819853 80526315 217197484 217209134#0 376064318 945765464 186952087#1 24364992 117386961 117386958 21072913 837761115 247686253 828822114 828821905 -835098090#1 835098091#0 835098092 118204357#0 118204357#2 828936895#5 118204358#0 -1018818190 118301063#0 24207680#6 117618420#0 856444545#0 856444680 856444792#1 93167155"/>
    </vehicle>
    <vehicle id="veh7437" depart="33.10">
        <route edges="25131942 1221362740 277117067 299714315#1 372636138 743661052 1121494298 24157876 1498037092 264018789 1088129792#0 264018800#0 264018800#1 264018800#2 150023220 199084017#1 150023225#0 150023225#1 108352260 82749516 331054039 85220272 1415138984 808761591 860061865 216940969#0 82751707#1 860061864#0 860061864#1 1415133938 1415133639 216940971#0 24821782 233620426#0 233620426#3 233620425#0 233620425#3 25529090 25528959#0"/>
    </vehicle>
    <vehicle id="veh838" depart="35.60">
        <route edges="80526321 217472547 195031597 153148685 24787460#1 78196861 153178162 552854765#1 19843572 217472549 195819853 80526315 217197484 217209134#0 376064318 945765464 186952087#1 117386953#0 80576567#1 128209964#0 128209964#1 887288446#0 887288445#1 277117073#0 128212107#1 277117061 277117057 1030117443 686500129#1 549146500#1 277117080 1465797167 200654866#1 118304896 431516755#1 431445480#0 431445480#3 431445479#0 431445479#2 25117111#1 37832001#0 37832001#1 1221362740 277117067 299714315#1 372636138 743661052 1121494298 24157876 1498037092"/>
    </vehicle>
    <vehicle id="veh4878" depart="40.30">
        <route edges="-1379270344 -340398943#0 -729745563 -189125271#1 -189125271#0 -189125273#1 447662402#0 447662462 447662460#1 178067341#1 -840207983#1 -840207983#0 538978472 24559263"/>
    </vehicle>
    <vehicle id="veh6577" depart="49.90">
        <route edges="46583530#0 83675715 -25805689#2 25805679#0 216945216#0 216943996#0 216943996#1 216943997#0 216943995 26342689 147463160#0 24822858 1385356090 1337242031 216893225 1067620219 216893652 216893651#0 818998963 216893653 1096657788 216894223#0 216894224 498651800 860063721 216940973#2 216940966#1 860063720 331054037 19845066 108352259#0 108352259#1 150023221#0 150023221#1 150023220 199084017#1 196713930#0 196713930#1 37829704 217499924 217499925 217499930 217499932#0"/>
    </vehicle>
    <vehicle id="veh653" depart="50.00">
        <route edges="29259894 -720552242 29259964 29259948#2 736928567 710377528 -552230300#1 -552230300#0 -237026821 -24805542#0 -366458331#0 -715092610 -276667121#0 -237025869 -37697990#2 -37697990#0 19847015#0 26302146 242707358 368325413 37828459#0 37828459#1 114324811 37828490 368152909#1 187685308 149948147#1 216789259#0 216789259#2 168660721 216789263#0 216789273#0 216789273#1 216789264 216789266 187685304#0 216696189 1022234061 1022234063#0 1022234063#2 1022234063#3 65372191 237025647#0 237025647#1 237025647#2 237025647#3 1022234060"/>
    </vehicle>
    <vehicle id="veh96" depart="51.10">
        <route edges="206880021 25023871 218323941 723009832#1 713711824 218323999 552853688 723009817#0 723009817#1 552853687#2 723009812 25438331#0 25438331#2 25438331#5 -876585150#2 -876585150#1 -876585150#0 -25438331#3 -25438331#1 -1371924396 -726004486 -552853687#1 -723009817#0 -552853688 -218323999 -713711824 -723009832#1 206880022 552853691#1 218323976 339315233 339315234#0 217197479#0 669428181 78196861 153178162 552854765#1 19843572 217472549 195819853 80526315 217197484 217209134#0 376064318 945765464 186952087#1 24364992 117386961 117386958 21072913 837761115 247686253 828822114 828821905 1173052558 830830065#1 830830066#0 830830168#0 828139880#2 1207081636 209286058#0 24163891#0 1366683520 24200742 1050857255 1050857254 964350947#0 153672334 1366683521 481446345#0 1201758098 1095638042#1 145035093#1 1243844009 1366683522 -661259154 661259155 661261067#0 913954534 115077666 913954644 1243731581"/>
    </vehicle>
    <vehicle id="veh6351" depart="51.80">
        <route edges="25071851 264018793 264018790 25517354 26465746#0 282987821#0 25517355 1450377305 25029839#1 682601485#0 -25029835 846487184 19803701 330623980#0 330623979 330623981#0 330623981#4 -547256631#1 -547256631#0 -65372651 216598704 22690761#1 22690768#1 216945215 216945214#0 216945216#0 25805677 545626100 27038414#0"/>
    </vehicle>
    <vehicle id="veh2472" depart="53.20">
        <route edges="-175716100#2 22818198#5 264018800#0 264018800#1 264018800#2 150023220 199084017#1 150023225#0 150023225#1 153263840#0 153263840#1 19844875#0 19844875#1 19844875#2 37829708 19842465 264018795 -372636138 -372635877 101322354#0 101322354#1 1392975571#0 -48705330#1 -600704985#4 -600704985#0 25530766 1009151106"/>
    </vehicle>
    <vehicle id="veh4722" depart="53.60">
        <route edges="-173129521#1 25517694#0 85220272 1415138984 808761591 860061865 216940969#0 82751707#1 860061864#0 860061864#1 1415133938 1415133639 216940971#0 1098623339 37834148#0 818876721 216940970#0 216940972 177213391#0 1473434713#1 216893223 1068450560 179246547#0 179246547#5 828427971 330623974#1 216789261#0 216789261#2 187685310#0 187685310#1 216758819 216757313 199688061 216757310"/>
    </vehicle>
    <vehicle id="veh1700" depart="59.20">
        <route edges="277424360 277424367#0 277424367#3 277424368#0 -458915383#1 -21896369 -834338004 -834338003#3 -628276442#12 -628276442#3 -1110242584#1 675822808#0 675822808#3 475556412#0 -1435150630#0 -1435150636#1 24193276 206880045#1 -759900797#1 -759900797#0 -1246831928 -1070812772 -759900795 -277424361#2 -277424361#1 -759900794 -956021669 -24559263 -24345907#9 -24345907#8 284450664#1 284450664#4 240869997 46135811 240869998#0 431516755#1 431445480#0 431445480#3 431445479#0 431445479#2 25117111#1 37832001#0 37832001#1 1221362740 277117067 299714315#1 372636138 743661052 1121494298 19844375 37829704 217499924 217499925 217499930 217499932#0"/>
    </vehicle>
    <vehicle id="veh1959" depart="61.80">
        <route edges="216757319 221329659 221329657 1022234064 216757315#0 216757315#1 199537368 216757322#0 453923720 216789266 216789267#0 216789265 1431090265 187685309 333129875 195031598#0 217162184 180640939#0 180640939#1 82749515 217162194 180640933#1 217162193 533275337#0 533275337#1 24787440 217162186 195031599#0 217178032 24787452 28289235 455095139 535723996 535723963 669428180 25069639 25069632 25069631 430292701#1 430292702 199121063#0 199121063#1 365151260#0 365151260#1 1306395970#0 1306395970#1 1306395970#2 821638401 821638402 80526315 217197484 217209134#0 376064318 945765464 186952087#1 117386953#0 80576567#1 128209964#0 128209964#1 887288446#0 887288445#1 277117073#0 473832224#0 473832224#1 -181350900#1 29326874 181350898 677516405 119918895#0 852688550#1 852687657 475556394#0 828600681#0 828600649 828600620#0 475556401#1 828600598#0 825434646#0 825434646#1 22442417 297145076#0 475556403#1 277424365#1 -277424371#1 -26372275#3 -475556415#7 -475556415#5 475556416#0 277424363#1 -277424372#4 -277424372#3 -277424372#0 -277424362#2 26380681#0 -190102384#18 26380682#0 1453086473#0"/>
    </vehicle>
    <vehicle id="veh1874" depart="65.80">
        <route edges="370445394#15 835875768#11 21896369 458915383#0 207815902#1 1158837320 443761961 1460721167 1448091215#0 458909126#0 458909126#2 458909125 239488609 118304890 157868808"/>
    </vehicle>
    <vehicle id="veh7978" depart="65.90">
        <route edges="216789273#1 216789264 216789266 216789267#0 216789265 216789262#0 216789262#1 168660721 216789260#0 216693857 453923730 1464098894 116688055#0 116688055#2 216893222#0 147463160#0 24822858 1385356090 1337242031 216893225 1067620219 216893652 216893651#0 818998963 216893653 1096657788 216894223#0 216894224 498651800 860063721 216940973#2 216940966#1 860063720 331054037 19845066 108352259#0 108352259#1 150023221#0 150023221#1 150023220 199084017#1 196713930#0 196713930#1 37829704 217499924 217499925 217499930 217499932#0"/>
    </vehicle>
    <vehicle id="veh4893" depart="71.60">